THERMO   
300.000  1500.000  5000.000  
!Thermo updated by Kun Wang, May of 2013:
!(1) added many for molecular weight species from THERM,
!(2) replaced some C6H11 species from Katie 
!C6 pyrlolysis thermo KLR 3/13/2007 + replaced by new C3-O2 
AR                L 5/66AR  1    0    0    0G   300.000  5000.000 1000.000    01
 2.50104422E+00 0.00000000E+00 0.00000000E+00 0.00000000E+00 0.00000000E+00    2
-7.45686320E+02 4.36103012E+00 2.50104422E+00 0.00000000E+00 0.00000000E+00    3
 0.00000000E+00 0.00000000E+00-7.45686320E+02 4.36103012E+00                   4
H    from Burcat  L 6/94H   1    0    0    0G   200.000  6000.000 1000.        1  
 0.25000000E+01 0.00000000E+00 0.00000000E+00 0.00000000E+00 0.00000000E+00    2
 0.25473660E+05-0.44668285E+00 0.25000000E+01 0.00000000E+00 0.00000000E+00    3
 0.00000000E+00 0.00000000E+00 0.25473660E+05-0.44668285E+00 0.26219035E+05    4
h                 L 7/88H   1   00   00   00G   200.000  3500.000   1000.00    1
 2.50000001E+00-2.30842973E-11 1.61561948E-14-4.73515235E-18 4.98197357E-22    2
 2.54736599E+04-4.46682914E-01 2.50000000E+00 7.05332819E-13-1.99591964E-15    3
 2.30081632E-18-9.27732332E-22 2.54736599E+04-4.46682853E-01 6.19742800E+03    4
c3h6              120186C   3H   6          G  0300.00   5000.00  1000.00      1
 0.06732257E+02 0.01490834E+00-0.04949899E-04 0.07212022E-08-0.03766204E-12    2
-0.09235703E+04-0.01331335E+03 0.01493307E+02 0.02092518E+00 0.04486794E-04    3
-0.01668912E-06 0.07158146E-10 0.01074826E+05 0.01614534E+03                   4
c3h5-a            PD5/98C   3H   5    0    0G   300.000  3000.000              1
 0.65007877E+01 0.14324731E-01-0.56781632E-05 0.11080801E-08-0.90363887E-13    2
 0.17482449E+05-0.11243050E+02 0.13631835E+01 0.19813821E-01 0.12497060E-04    3
-0.33355555E-07 0.15846571E-10 0.19245629E+05 0.17173214E+02                   4
c2h3              L 2/92C   2H   3   00   00G   200.000  3500.000  1000.000    1
 3.01672400E+00 1.03302292E-02-4.68082349E-06 1.01763288E-09-8.62607041E-14    2
 3.46128739E+04 7.78732378E+00 3.21246645E+00 1.51479162E-03 2.59209412E-05    3
-3.57657847E-08 1.47150873E-11 3.48598468E+04 8.51054025E+00 1.05750490E+04    4
ch3               L11/89C   1H   3   00   00G   200.000  3500.000  1000.000    1
 2.28571772E+00 7.23990037E-03-2.98714348E-06 5.95684644E-10-4.67154394E-14    2
 1.67755843E+04 8.48007179E+00 3.67359040E+00 2.01095175E-03 5.73021856E-06    3
-6.87117425E-09 2.54385734E-12 1.64449988E+04 1.60456433E+00 1.03663400E+04    4
HE                L 5/66HE  1    0    0    0G   300.000  5000.000 1000.000    01
 2.50104422E+00 0.00000000E+00 0.00000000E+00 0.00000000E+00 0.00000000E+00    2
-7.45686320E+02 9.08589239E-01 2.50104422E+00 0.00000000E+00 0.00000000E+00    3
 0.00000000E+00 0.00000000E+00-7.45686320E+02 9.08589239E-01                   4
N2                J 9/65N   2    0    0    0G   300.000  5000.000 1651.000    01
 2.99595345E+00 1.23650803E-03-3.70307884E-07 5.05346607E-11-2.62980289E-15    2
-9.13275934E+02 5.68044098E+00 3.26021756E+00 5.91317648E-04 2.24046943E-07    3
-1.95572836E-10 3.61873219E-14-9.99926012E+02 4.27471787E+00                   4
H2O               J 3/61H   2O   1    0    0G   300.000  5000.000 1550.000    11
 2.12664307E+00 3.95064411E-03-1.34445915E-06 2.02233655E-10-1.12832177E-14    2
-2.96648416E+04 9.94130947E+00 3.99815645E+00-5.64426779E-04 2.69352862E-06    3
-1.38822387E-09 2.22299458E-13-3.02772009E+04-2.19584030E-02                   4
C                  12108C   1    0    0    0G   300.000  5000.000 1000.000    01
 2.50248202E+00 0.00000000E+00 0.00000000E+00 0.00000000E+00 0.00000000E+00    2
 8.54642529E+04 4.74538974E+00 2.50248202E+00 0.00000000E+00 0.00000000E+00    3
 0.00000000E+00 0.00000000E+00 8.54642529E+04 4.74538974E+00                   4
H2                J 3/61H   2    0    0    0G   300.000  5000.000 1372.000    01
 2.80745773E+00 1.05566826E-03-2.75154709E-07 3.13764993E-11-1.31833174E-15    2
-7.56604815E+02-3.36900751E-01 3.53708090E+00-3.54734803E-04 6.80901911E-07    3
-2.27080447E-10 1.93615941E-14-1.04438982E+03-4.36829600E+00                   4
CH4               J 6/69C   1H   4    0    0G   300.000  5000.000 1369.000    01
 2.71850414E+00 8.46951151E-03-2.86170881E-06 4.40328507E-10-2.53773215E-14    2
-1.05576197E+04 3.79320756E+00 2.91521312E+00 3.23795334E-03 6.91220825E-06    3
-5.84273795E-09 1.33208116E-12-1.00717942E+04 4.55719556E+00                   4
CH                J12/67C   1H   1    0    0G   300.000  5000.000 1369.000    01
 2.20706417E+00 2.17820794E-03-5.92723266E-07 7.14204458E-11-3.20736669E-15    2
 7.09259642E+04 9.23709684E+00 3.50131519E+00-4.28180162E-04 1.29559961E-06    3
-5.04869889E-10 5.75699778E-14 7.04291581E+04 2.12836125E+00                   4
CH2               J12/72C   1H   2    0    0G   300.000  5000.000 1358.000    01
 3.42504406E+00 3.00835428E-03-1.03082425E-06 1.60128149E-10-9.29054353E-15    2
 4.52226365E+04 2.77263987E+00 4.11616695E+00-7.72574732E-04 4.51949310E-06    3
-3.01358785E-09 6.24607712E-13 4.52499362E+04-8.58779324E-02                   4
CH2S              J12/72C   1H   2    0    0G   300.000  5000.000 1993.000    01
 3.44498208E+00 3.14193588E-03-1.11876327E-06 1.78884595E-10-1.06027384E-14    2
 4.98233800E+04 1.55704872E+00 3.71072329E+00 1.05249922E-03 2.28817331E-06    3
-1.84118043E-09 3.92349813E-13 4.98869752E+04 6.77208108E-01                   4
C2H2       9/20/ 1      C   2H   2    0    0G   300.000  5000.000 1407.000    01
 4.98265164E+00 4.25992930E-03-1.37483523E-06 2.04717964E-10-1.15191740E-14    2
 2.52697118E+04-5.81321385E+00 2.06742667E+00 1.46568506E-02-1.52947063E-05    3
 8.30965761E-09-1.72932175E-12 2.59578589E+04 8.62758672E+00                   4
C2H6       9/20/ 1      C   2H   6    0    0G   300.000  5000.000 1384.000    11
 6.10683384E+00 1.29236361E-02-4.42527196E-06 6.87391726E-10-3.98901732E-14    2
-1.37500014E+04-1.30081250E+01-2.52854362E-02 2.40764754E-02-1.11893472E-05    3
 2.08340901E-09-5.29868617E-14-1.12345534E+04 2.11648750E+01                   4
C2H        9/20/ 1      C   2H   1    0    0G   300.000  5000.000 1361.000    01
 4.66893822E+00 2.01284720E-03-7.01828634E-07 1.10347228E-10-6.45790465E-15    2
 6.60310696E+04-1.55973259E+00 4.27708350E+00 1.74130076E-03 7.31180206E-07    3
-9.71827901E-10 2.36956727E-13 6.63125955E+04 1.01085626E+00                   4
C2H3       9/20/ 1      C   2H   3    0    0G   300.000  5000.000 1395.000    01
 5.07331248E+00 6.58316278E-03-2.23762924E-06 3.45803379E-10-1.99940490E-14    2
 3.37134093E+04-3.39792712E+00 1.25329724E+00 1.56258370E-02-1.07803879E-05    3
 4.18054634E-09-7.01360362E-13 3.50634118E+04 1.71341661E+01                   4
C2H5  RossiMJ JPCA2013  C   2H   5    0    0G   300.000  5000.000 1398.000    61
 6.22577641E+00 9.33147958E-03-2.91532074E-06 4.93045587E-10-3.23727622E-14    2
 1.10491527E+04-1.05892847E+01 6.47841665E-01 2.20763573E-02-1.43052088E-05    3
 5.26079643E-09-8.19283811E-13 1.30537239E+04 1.95326520E+01                   4
C*C*C      9/20/ 1      C   3H   4    0    0G   300.000  5000.000 1395.000    01
 7.72656830E+00 9.36653958E-03-3.18633443E-06 4.92833501E-10-2.85166316E-14    2
 1.98863470E+04-1.91891052E+01 9.04627493E-01 2.54935880E-02-1.80277971E-05    3
 6.83164810E-09-1.08512767E-12 2.22562951E+04 1.74142208E+01                   4
C#CC       9/20/ 1      C   3H   4    0    0G   300.000  5000.000 1361.000    11
 7.82375971E+00 9.40009504E-03-3.31992737E-06 5.26581431E-10-3.10092843E-14    2
 1.83958734E+04-1.97410978E+01 2.36172918E+00 1.71141946E-02-4.77661324E-06    3
-1.33111337E-09 6.52367983E-13 2.08645538E+04 1.14979190E+01                   4
aC3H4             L 8/89C   3H   4    0    0G   200.000  6000.000              1
 0.63168722E+01 0.11133728E-01-0.39629378E-05 0.63564238E-09-0.37875540E-13    2
 0.20117495E+05-0.10995766E+02 0.26130445E+01 0.12122575E-01 0.18539880E-04    3
-0.34525149E-07 0.15335079E-10 0.21541567E+05 0.10226139E+02 0.22962267E+05    4
pC3H4             T 2/90H   4C   3    0    0G   200.000  6000.000              1
 0.60252400E+01 0.11336542E-01-0.40223391E-05 0.64376063E-09-0.38299635E-13    2
 0.19620942E+05-0.86043785E+01 0.26803869E+01 0.15799651E-01 0.25070596E-05    3
-0.13657623E-07 0.66154285E-11 0.20802374E+05 0.98769351E+01 0.22302059E+05    4
cC3H4             T12/81C   3H   4    0    0G   300.000  5000.000              1
 0.66999931E+01 0.10357372E-01-0.34551167E-05 0.50652949E-09-0.26682276E-13    2
 0.30199051E+05-0.13378770E+02-0.24621047E-01 0.23197215E-01-0.18474357E-05    3
-0.15927593E-07 0.86846155E-11 0.32334137E+05 0.22729762E+02 0.3332728 E+05    4
C*CC       9/20/ 1      C   3H   6    0    0G   300.000  5000.000 1388.000    11
 8.01595958E+00 1.37023634E-02-4.66249733E-06 7.21254402E-10-4.17370126E-14    2
-1.87821271E+03-2.00160668E+01 3.94615444E-01 2.89107662E-02-1.54886808E-05    3
 3.88814209E-09-3.37890352E-13 1.06688164E+03 2.19003736E+01                   4
CCC        9/20/ 1      C   3H   8    0    0G   300.000  5000.000 1387.000    21
 9.30903615E+00 1.73199401E-02-5.92006308E-06 9.18549779E-10-5.32650089E-14    2
-1.78511121E+04-2.87649046E+01-2.93546760E-01 3.63870253E-02-1.95049623E-05    3
 4.95900425E-09-4.55919788E-13-1.41148884E+04 2.41087380E+01                   4
C#CC.      9/20/ 1      C   3H   3    0    0G   300.000  5000.000 1380.000    11
 7.88591315E+00 6.65864168E-03-2.34157567E-06 3.70338401E-10-2.17650188E-14    2
 3.75766518E+04-1.85822699E+01 2.07875733E+00 2.00336132E-02-1.45703340E-05    3
 5.70232469E-09-9.52285270E-13 3.96645659E+04 1.27620341E+01                   4
C.*CC      9/20/ 1      C   3H   5    0    0G   300.000  5000.000 1390.000    11
 7.88765879E+00 1.13012591E-02-3.84213130E-06 5.93982677E-10-3.43567175E-14    2
 2.82377716E+04-1.74291589E+01 1.32807335E+00 2.53107914E-02-1.51530439E-05    3
 4.74345565E-09-6.24666084E-13 3.06873903E+04 1.83328787E+01                   4
C*C.C      9/20/ 1      C   3H   5    0    0G   300.000  5000.000 1382.000    11
 7.37492443E+00 1.17510061E-02-4.00021283E-06 6.18947395E-10-3.58215018E-14    2
 2.72874911E+04-1.43478655E+01 2.17916644E+00 2.03826623E-02-7.91413834E-06    3
 4.76906187E-10 2.70398536E-13 2.94895338E+04 1.48785684E+01                   4
C*CC.      9/20/ 1      C   3H   5    0    0G   300.000  5000.000 1386.000    11
 8.86768772E+00 1.09012389E-02-3.80094606E-06 5.97727066E-10-3.49892618E-14    2
 1.61006315E+04-2.50850368E+01-3.34024311E-01 3.22991878E-02-2.33490952E-05    3
 8.99835085E-09-1.46327673E-12 1.93614921E+04 2.44623002E+01                   4
C#CC#C.    9/21/ 1      C   4H   1    0    0G   300.000  5000.000 1378.000    11
 9.50074477E+00 2.70959368E-03-9.72935922E-07 1.56043578E-10-9.26088151E-15    2
 8.99516921E+04-2.41886375E+01 5.32985673E+00 1.28183220E-02-1.04787453E-05    3
 4.28617368E-09-7.06954297E-13 9.13629547E+04-1.91790764E+00                   4
C#CC#C     9/21/ 1      C   4H   2    0    0G   300.000  5000.000 1403.000    11
 9.20039219E+00 5.83685783E-03-1.93268969E-06 2.93238088E-10-1.67317470E-14    2
 4.94627272E+04-2.49131180E+01 3.34288281E+00 2.53996923E-02-2.69670696E-05    3
 1.44570450E-08-2.96591964E-12 5.09591447E+04 4.54297574E+00                   4
C#CC*C     9/21/ 1      C   4H   4    0    0G   300.000  5000.000 1392.000    11
 1.12367761E+01 8.82364166E-03-3.07153201E-06 4.82681345E-10-2.82467653E-14    2
 2.92566868E+04-3.57336366E+01-2.99968144E-02 3.79242319E-02-3.25061220E-05    3
 1.42322491E-08-2.50323956E-12 3.28915781E+04 2.37912229E+01                   4
C*C*C*C    9/21/ 1      C   4H   4    0    0G   300.000  5000.000 1396.000    01
 1.02228106E+01 9.78691343E-03-3.33077233E-06 5.15406033E-10-2.98347504E-14    2
 3.61853649E+04-3.08475571E+01 1.51938759E+00 3.16432460E-02-2.48251111E-05    3
 1.03048367E-08-1.75504171E-12 3.90650550E+04 1.53704305E+01                   4
C*CC*C     9/21/ 1      C   4H   6    0    0G   300.000  5000.000 1398.000    11
 1.11633789E+01 1.37163965E-02-4.69715783E-06 7.29693836E-10-4.23486203E-14    2
 7.79039770E+03-3.69847949E+01-1.43095121E+00 4.78706062E-02-4.15446800E-05    3
 1.91549552E-08-3.57158507E-12 1.17551314E+04 2.90825833E+01                   4
C#CCC      9/21/ 1      C   4H   6    0    0G   300.000  5000.000 1365.000    21
 1.08459156E+01 1.41764618E-02-4.99614539E-06 7.91304300E-10-4.65508308E-14    2
 1.44024355E+04-3.41536387E+01 2.67557212E+00 2.69069101E-02-9.86727879E-06    3
 6.63878457E-13 4.94968590E-13 1.79976713E+04 1.21885731E+01                   4
CC#CC      9/21/ 1      C   4H   6    0    0G   300.000  5000.000 2002.000    21
 8.60406095E+00 1.71534809E-02-6.32700416E-06 1.03618677E-09-6.24642424E-14    2
 1.29670725E+04-2.23443927E+01 2.65416244E+00 2.37241191E-02-3.54896794E-06    3
-3.98445583E-09 1.30374564E-12 1.56563258E+04 1.21063985E+01                   4
C*C*CC     9/21/ 1      C   4H   6    0    0G   300.000  5000.000 1390.000    11
 1.05039680E+01 1.41242631E-02-4.80637221E-06 7.43634992E-10-4.30400365E-14    2
 1.44239603E+04-3.16247069E+01 1.13142053E+00 3.44939157E-02-2.14418290E-05    3
 6.84195879E-09-8.94244064E-13 1.78579480E+04 1.92969683E+01                   4
C2C*C      9/21/ 1      C   4H   8    0    0G   300.000  5000.000 1388.000    21
 1.12258330E+01 1.81795798E-02-6.20348592E-06 9.61444458E-10-5.57088057E-14    2
-7.69983777E+03-3.73306704E+01 9.38433173E-01 3.90547287E-02-2.16437148E-05    3
 5.87267077E-09-6.14435479E-13-3.74817891E+03 1.91442985E+01                   4
C*CCC      9/21/ 1      C   4H   8    0    0G   300.000  5000.000 1392.000    21
 1.13508668E+01 1.80617877E-02-6.16093029E-06 9.54652959E-10-5.53089641E-14    2
-5.97871038E+03-3.64369438E+01-8.31372089E-01 4.52580978E-02-2.93658559E-05    3
 1.00220436E-08-1.43191680E-12-1.57875035E+03 2.95084236E+01                   4
CC*CC      9/21/ 1      C   4H   8    0    0G   300.000  5000.000 1384.000    21
 1.07864376E+01 1.84629194E-02-6.28289490E-06 9.72052191E-10-5.62579166E-14    2
-7.33793717E+03-3.44892763E+01 6.69213599E-01 3.76839941E-02-1.85689683E-05    3
 3.69571062E-09-1.03095209E-13-3.33819338E+03 2.14868169E+01                   4
C3C        9/21/ 1      C   4H  10    0    0G   300.000  5000.000 1389.000    31
 1.25733114E+01 2.18926418E-02-7.52538350E-06 1.17205495E-09-6.81446681E-14    2
-2.31696746E+04-4.68044255E+01-1.01277506E+00 5.04683181E-02-3.00502072E-05    3
 9.15435582E-09-1.15326683E-12-1.80495698E+04 2.74256871E+01                   4
CCCC       9/21/ 1      C   4H  10    0    0G   300.000  5000.000 1389.000    31
 1.25055526E+01 2.17524393E-02-7.43384946E-06 1.15331684E-09-6.68749762E-14    2
-2.19479302E+04-4.44902356E+01-5.95684476E-01 4.89605743E-02-2.82670269E-05    3
 8.13598060E-09-9.29098102E-13-1.69934308E+04 2.71845212E+01                   4
C#CC*C.    9/21/ 1      C   4H   3    0    0G   300.000  5000.000 1393.000    11
 1.10893823E+01 6.43352378E-03-2.25369810E-06 3.55665967E-10-2.08755285E-14    2
 5.93836219E+04-3.30296153E+01 9.10891076E-01 3.42981884E-02-3.21655592E-05    3
 1.50954421E-08-2.79271582E-12 6.25109724E+04 2.01888841E+01                   4
C#CC.*C    9/21/ 1      C   4H   3    0    0G   300.000  5000.000 1368.000    11
 1.12560307E+01 6.50355382E-03-2.32598780E-06 3.72067180E-10-2.20408440E-14    2
 5.43852519E+04-3.44100833E+01 3.72727520E+00 2.21478105E-02-1.39906402E-05    3
 3.98975546E-09-3.94597890E-13 5.71898232E+04 6.70823449E+00                   4
C*C*C*C.  09/30/98 05:15C   4H   3    0    0G   300.000  5000.000 1395.000    01
 9.96614271E+00 7.50519836E-03-2.55434465E-06 3.95315887E-10-2.28868152E-14    2
 5.41314893E+04-2.62716532E+01 2.57559288E+00 2.67239086E-02-2.21964091E-05    3
 9.67994340E-09-1.71307058E-12 5.65109539E+04 1.27411152E+01                   4
C*CC*C.    9/21/ 1      C   4H   5    0    0G   300.000  5000.000 1398.000    11
 1.10519197E+01 1.12941314E-02-3.86819841E-06 6.00963451E-10-3.48791903E-14    2
 3.78981506E+04-3.38021376E+01-5.30044701E-01 4.44093464E-02-4.14042363E-05    3
 2.01260859E-08-3.88340674E-12 4.13806873E+04 2.63614117E+01                   4
C*CC.*C    9/21/ 1      C   4H   5    0    0G   300.000  5000.000 1385.000    11
 1.12996377E+01 1.14540976E-02-4.00767995E-06 6.31701085E-10-3.70375189E-14    2
 3.27415784E+04-3.59378041E+01 9.94580487E-01 3.67200974E-02-2.88848503E-05    3
 1.22734851E-08-2.18334563E-12 3.62902598E+04 1.91346073E+01                   4
C#CC.C     9/21/ 1      C   4H   5    0    0G   300.000  5000.000 1391.000    11
 1.01676152E+01 1.19383121E-02-4.06799128E-06 6.29911914E-10-3.64772449E-14    2
 3.27733072E+04-2.89339744E+01 1.92302568E+00 3.10977409E-02-2.14629997E-05    3
 8.00985782E-09-1.26824902E-12 3.56873928E+04 1.54484285E+01                   4
C#CCC.     9/21/ 1      C   4H   5    0    0G   300.000  5000.000 2015.000    21
 8.87241166E+00 1.40772223E-02-5.18569954E-06 8.48556641E-10-5.11235388E-14    2
 4.03366090E+04-1.99219569E+01 3.59900579E+00 2.11316555E-02-5.23112501E-06    3
-1.95151561E-09 8.07311518E-13 4.26020838E+04 1.01758354E+01                   4
CC#CC.     9/21/ 1      C   4H   5    0    0G   300.000  5000.000 1366.000    11
 9.83656782E+00 1.28569575E-02-4.52854218E-06 7.16969750E-10-4.21665878E-14    2
 3.12584482E+04-2.77559551E+01 2.48527474E+00 2.43277942E-02-8.94850602E-06    3
 3.22299569E-11 4.38905149E-13 3.44920414E+04 1.39353444E+01                   4
CC*CC.     9/21/ 1      C   4H   7    0    0G   300.000  5000.000 1385.000    21
 1.16018486E+01 1.57505666E-02-5.46376126E-06 8.56295369E-10-5.00066835E-14    2
 1.06487145E+04-3.86778976E+01-1.15881716E-01 4.13379755E-02-2.68395034E-05    3
 9.08882895E-09-1.29712052E-12 1.49645427E+04 2.50016070E+01                   4
C*C.CC     9/21/ 1      C   4H   7    0    0G   300.000  5000.000 1389.000    21
 1.07092407E+01 1.61102825E-02-5.49846133E-06 8.52304018E-10-4.93905022E-14    2
 2.31874323E+04-3.07648054E+01 9.64124370E-01 3.66781354E-02-2.17105448E-05    3
 6.55880219E-09-8.11791145E-13 2.68423270E+04 2.24365633E+01                   4
C*CCC.     9/21/ 1      C   4H   7    0    0G   300.000  5000.000 1392.000    21
 1.09215027E+01 1.59294073E-02-5.43642246E-06 8.42695797E-10-4.88353299E-14    2
 1.90921144E+04-3.12721325E+01-4.09581101E-02 4.06024409E-02-2.67339769E-05    3
 9.28995844E-09-1.35368138E-12 2.30309664E+04 2.79985374E+01                   4
C*CC.C     9/21/ 1      C   4H   7    0    0G   300.000  5000.000 1392.000    11
 1.09470170E+01 1.63724387E-02-5.59896200E-06 8.69147693E-10-5.04214389E-14    2
 1.11181741E+04-3.54908400E+01-1.12475112E+00 4.34882854E-02-2.87750454E-05    3
 9.88046971E-09-1.40120341E-12 1.54420160E+04 2.97651156E+01                   4
C2.C*C     9/21/ 1      C   4H   7    0    0G   300.000  5000.000 1386.000    21
 1.20751223E+01 1.53848479E-02-5.34522638E-06 8.38553838E-10-4.90033930E-14    2
 1.02792066E+04-4.16923478E+01 2.32429586E-01 4.23582063E-02-2.93986340E-05    3
 1.09304927E-08-1.73072388E-12 1.45426253E+04 2.22928497E+01                   4
!C2C*C             T 6/83H   8C   4    0    0G   300.000  5000.0   1386.000     1
! 0.44609470E+01 0.29611487E-01-0.13077129E-04 0.26571934E-08-0.20134713E-12    2
!-0.50066758E+04 0.10671549E+01 0.26471405E+01 0.25902957E-01 0.81985354E-05    3
!-0.22193259E-07 0.88958580E-11-0.40373069E+04 0.12676388E+02                   4
!C2.C*C            USC/07C   4H   7O   0    0G   300.000  5000.000 1386.000     1
! 0.71485939E+01 0.22189671E-01-0.84400172E-05 0.13133353E-08-0.51617927E-13    2
! 0.12712294E+05-0.12131183E+02-0.10375890E+01 0.45566667E-01-0.30476231E-04    3
! 0.71102568E-08 0.99685722E-12 0.14896458E+05 0.29863663E+02                   4
C2C*C.     9/21/ 1      C   4H   7    0    0G   300.000  5000.000 1389.000    21
 1.10957600E+01 1.57810049E-02-5.38419615E-06 8.34360121E-10-4.83401481E-14    2
 2.24175827E+04-3.40426822E+01 1.87632434E+00 3.54486107E-02-2.13104949E-05    3
 6.73400492E-09-9.03166339E-13 2.58712914E+04 1.62429161E+01                   4
CC.*CC     9/21/ 1      C   4H   7    0    0G   300.000  5000.000 1379.000    21
 1.01554133E+01 1.65013248E-02-5.61672328E-06 8.69103603E-10-5.03037094E-14    2
 2.18242102E+04-2.81884706E+01 2.43874352E+00 2.92295980E-02-1.10907624E-05    3
 3.35089369E-10 4.95669524E-13 2.50864168E+04 1.52219548E+01                   4
CCCC.      9/21/ 1      C   4H   9    0    0G   300.000  5000.000 1389.000    31
 1.20744111E+01 1.96194736E-02-6.70869362E-06 1.04121341E-09-6.03910407E-14    2
 3.12417345E+03-3.86189978E+01 2.15101842E-01 4.42132965E-02-2.55006473E-05    3
 7.32080770E-09-8.32495567E-13 7.61325140E+03 2.62751123E+01                   4
CCC.C      9/21/ 1      C   4H   9    0    0G   300.000  5000.000 1373.000    31
 1.18293992E+01 1.94203812E-02-6.55835141E-06 1.00989031E-09-5.82693176E-14    2
 1.79315973E+03-3.68210535E+01 7.70280140E-01 3.86280904E-02-1.57100260E-05    3
 7.16860110E-10 7.00801289E-13 6.28812837E+03 2.49106490E+01                   4
C3C.       2/20/ 7 THERMC   4H   9    0    0G   300.000  5000.000 1371.000    31
 1.06255654E+01 2.10520049E-02-7.24673634E-06 1.12970527E-09-6.57239734E-14    2
 8.99515063E+01-3.48930806E+01 3.00309826E+00 2.87551563E-02-2.88463154E-06    3
-5.91231913E-09 1.91820725E-12 3.85174260E+03 9.80237511E+00                   4
!C3C.  MJRossi JPCA 2014 C   4H   9    0    0G   300.000  5000.000 1393.000    51
! 1.07257172E+01 1.94707832E-02-5.92819267E-06 9.11337623E-10-5.46309547E-14    2
!-1.08852211E+04-3.10866732E+01-1.04935808E-01 4.44956029E-02-2.84495028E-05    3
! 1.03548623E-08-1.60931314E-12-7.04439924E+03 2.72646241E+01                   4
C2CC.      9/21/ 1      C   4H   9    0    0G   300.000  5000.000 1388.000    31
 1.21606184E+01 1.97410873E-02-6.79331097E-06 1.05883041E-09-6.15941215E-14    2
 1.89429181E+03-3.99434775E+01-2.41823941E-01 4.59113706E-02-2.75593803E-05    3
 8.50493368E-09-1.09259320E-12 6.56265361E+03 2.77944816E+01                   4
C#CCC#C    9/20/ 1      C   5H   4    0    0G   300.000  5000.000 1401.000    01
 1.11415535E+01 1.14655356E-02-3.88879840E-06 6.00219079E-10-3.46772657E-14    2
 4.76922400E+04-3.43245246E+01 2.17283079E-02 4.24690017E-02-3.80008371E-05    3
 1.78408507E-08-3.34945108E-12 5.10853705E+04 2.36690423E+01                   4
C#CCC*C    9/20/ 1      C   5H   6    0    0G   300.000  5000.000 1392.000    11
 1.26242018E+01 1.52622405E-02-5.28484348E-06 8.27230763E-10-4.82668911E-14    2
 2.65668395E+04-4.26791815E+01-8.51082289E-01 4.84920711E-02-3.77167678E-05    3
 1.56635332E-08-2.69978580E-12 3.11347387E+04 2.91766264E+01                   4
C*CC2*C    9/20/ 1      C   5H   8    0    0G   300.000  5000.000 1388.000    21
 1.33135127E+01 1.87229022E-02-6.34341753E-06 9.78632766E-10-5.65303619E-14    2
 4.09782431E+03-4.53608382E+01 1.10951967E+00 4.49650870E-02-2.73590662E-05    3
 8.43826981E-09-1.04803480E-12 8.59068924E+03 2.10331208E+01                   4
C*CCC*C    9/20/ 1      C   5H   8    0    0G   300.000  5000.000 1384.000    21
 1.42768623E+01 1.88159014E-02-6.57659206E-06 1.03593904E-09-6.07122376E-14    2
 5.39346728E+03-5.30057983E+01-1.75387474E+00 5.48379612E-02-3.78390191E-05    3
 1.36354531E-08-2.06221527E-12 1.11819982E+04 3.37287469E+01                   4
C*CC*CC    9/20/ 1      C   5H   8    0    0G   300.000  5000.000 1397.000    11
 1.37801028E+01 1.84621577E-02-6.19094563E-06 9.48428136E-10-5.45157025E-14    2
 2.46990666E+03-4.90348123E+01-1.48463160E+00 5.81455626E-02-4.68355038E-05    3
 2.02332755E-08-3.58026314E-12 7.39831910E+03 3.15682193E+01                   4
C*CCCC     9/20/ 1      C   5H  10    0    0G   300.000  5000.000 1392.000    31
 1.45851539E+01 2.24072471E-02-7.63348025E-06 1.18188966E-09-6.84385139E-14    2
-1.00898205E+04-5.23683936E+01-1.06223481E+00 5.74218294E-02-3.74486890E-05    3
 1.27364989E-08-1.79609789E-12-4.46546666E+03 3.22739790E+01                   4
C*CCC2     9/20/ 1      C   5H  10    0    0G   300.000  5000.000 1393.000    31
 1.46491909E+01 2.25422061E-02-7.72053001E-06 1.19958604E-09-6.96317745E-14    2
-1.11652332E+04-5.42252285E+01-1.83685605E+00 6.07709466E-02-4.21592576E-05    3
 1.56103972E-08-2.43142766E-12-5.34864282E+03 3.45203543E+01                   4
ME2BUTE1   9/20/ 1      C   5H  10    0    0G   300.000  5000.000 1391.000    31
 1.45614087E+01 2.25370538E-02-7.70100060E-06 1.19467870E-09-6.92704808E-14    2
-1.18004520E+04-5.30651959E+01-2.76630603E-01 5.53539280E-02-3.54499620E-05    3
 1.19626854E-08-1.69878242E-12-6.39547297E+03 2.73911578E+01                   4
C2C*CC     9/20/ 1      C   5H  10    0    0G   300.000  5000.000 1385.000    31
 1.39945443E+01 2.29446582E-02-7.82594153E-06 1.21260230E-09-7.02518457E-14    2
-1.31576943E+04-5.04083848E+01 1.20274147E+00 4.78872107E-02-2.48144766E-05    3
 5.73514355E-09-3.91266685E-13-8.15212335E+03 2.01592579E+01                   4
!CY13PD     4/23/03      C   5H   6    0    0G   300.000  5000.000 1387.000    01
! 1.36543234E+01 1.52623059E-02-5.38999640E-06 8.55032202E-10-5.03603129E-14    2
! 8.91096357E+03-5.54058745E+01-5.12257957E+00 5.97969364E-02-4.59592394E-05    3
! 1.77718567E-08-2.77548707E-12 1.53464279E+04 4.51716467E+01                   4
! cyC5H6 from Lindstedt Combustion&Flame 2011
CY13PD    cyC5H6        C   5H   6          G   250.000  5000.000   995.043    1
 1.13962877E+01 1.78132385E-02-6.98599114E-06 1.19766060E-09-7.46597817E-14    2
 1.05107370E+04-4.09532491E+01 3.88558409E+00-9.54959465E-03 1.21025820E-04    3
-1.42698928E-07 5.06836625E-11 1.48547364E+04 9.56173058E+00                   4
CYC5H8     9/20/ 1      C   5H   8    0    0G   300.000  5000.000 1398.000    01
 1.27525879E+01 2.01602949E-02-6.86564327E-06 1.06303695E-09-6.15663048E-14    2
-3.09810152E+03-4.85501459E+01-5.44615258E+00 6.33154620E-02-4.59351514E-05    3
 1.71229729E-08-2.58907474E-12 3.11839629E+03 4.88944865E+01                   4
CYPENE     9/20/ 1      C   5H   8    0    0G   300.000  5000.000 1398.000    01
 1.27525879E+01 2.01602949E-02-6.86564327E-06 1.06303695E-09-6.15663048E-14    2
-3.09810152E+03-4.85501459E+01-5.44615258E+00 6.33154620E-02-4.59351514E-05    3
 1.71229729E-08-2.58907474E-12 3.11839629E+03 4.88944865E+01                   4
CYC5H10    9/20/ 1      C   5H  10    0    0G   300.000  5000.000 1395.000    01
 1.30254911E+01 2.48383373E-02-8.44096370E-06 1.30515909E-09-7.55185013E-14    2
-1.72098432E+04-5.43094696E+01-7.18452311E+00 6.97305020E-02-4.53463755E-05    3
 1.45624513E-08-1.81443636E-12-1.00158290E+04 5.49588019E+01                   4
C#CC.C#C   9/20/ 1      C   5H   3    0    0G   300.000  5000.000 1390.000    01
 1.18788958E+01 8.94006180E-03-3.16475696E-06 5.02807299E-10-2.96456687E-14    2
 6.10387264E+04-4.05327478E+01-1.65771692E+00 4.55278708E-02-4.22153663E-05    3
 1.97583598E-08-3.66852534E-12 6.52733688E+04 3.04586055E+01                   4
C#CC.C*C   9/20/ 1      C   5H   5    0    0G   300.000  5000.000 1383.000    11
 1.35221554E+01 1.24125503E-02-4.40865094E-06 7.01968345E-10-4.14507584E-14    2
 3.94183642E+04-4.96354558E+01-2.17170995E+00 5.06823225E-02-4.09918772E-05    3
 1.70020278E-08-2.87834944E-12 4.47438697E+04 3.41438538E+01                   4
C#CCC*C.   9/20/ 1      C   5H   5    0    0G   300.000  5000.000 1383.000    11
 1.20031993E+01 1.33418216E-02-4.64378021E-06 7.29327104E-10-4.26515953E-14    2
 5.67538697E+04-3.55264291E+01 2.65971090E+00 3.57376586E-02-2.66990495E-05    3
 1.12902022E-08-2.06032499E-12 6.00877818E+04 1.46980744E+01                   4
C#CCCC.     4/13/98 THERC   5H   7    0    0G   300.000  5000.000 1375.000    31
 1.36183288E+01 1.63716928E-02-5.72563386E-06 9.02212830E-10-5.28868215E-14    2
 3.54660598E+04-4.45587337E+01 3.19528089E+00 3.56067471E-02-1.77079645E-05    3
 3.57110884E-09-1.39305076E-13 3.96977196E+04 1.34037655E+01                   4
C*CCC*C.   9/20/ 1      C   5H   7    0    0G   300.000  5000.000 1385.000    21
 1.41860706E+01 1.63589415E-02-5.73205532E-06 9.04415738E-10-5.30660173E-14    2
 3.54950915E+04-4.92463856E+01-8.55714936E-01 5.13783280E-02-3.76648435E-05    3
 1.45598983E-08-2.35892162E-12 4.08080878E+04 3.17111048E+01                   4
C*CC.C*C   9/20/ 1      C   5H   7    0    0G   300.000  5000.000 1390.000    01
 1.39666270E+01 1.73382242E-02-6.05769915E-06 9.54008293E-10-5.59044772E-14    2
 1.75830681E+04-5.22086625E+01-3.69004112E+00 5.97581971E-02-4.57690635E-05    3
 1.82005947E-08-2.97538155E-12 2.36302311E+04 4.22584443E+01                   4
C*CCC2.    9/20/ 1      C   5H   9    0    0G   300.000  5000.000 1393.000    31
 1.42217097E+01 2.04119170E-02-6.99754727E-06 1.08794956E-09-6.31801197E-14    2
 1.39046190E+04-4.90671831E+01-1.05084059E+00 5.61469987E-02-3.95783698E-05    3
 1.49122501E-08-2.36114833E-12 1.92613631E+04 3.30330899E+01                   4
C2C*CC. C*CC.C2 4/29/97 C   5H   9    0    0G   300.000  5000.000 1390.000    21
 1.37488172E+01 2.12968670E-02-7.31667112E-06 1.13927711E-09-6.62322897E-14    2
 4.95421087E+03-5.11769915E+01-1.34298397E+00 5.40081872E-02-3.39256108E-05    3
 1.08403561E-08-1.41074702E-12 1.04932841E+04 3.08504001E+01                   4
C.*CCC     9/21/ 1      C   4H   7    0    0G   300.000  5000.000 1393.000    21
 1.12162042E+01 1.56658034E-02-5.34224661E-06 8.27633431E-10-4.79428797E-14    2
 2.41404271E+04-3.38119007E+01 1.19943124E-01 4.15804401E-02-2.89254150E-05    3
 1.08174803E-08-1.70622296E-12 2.80390734E+04 2.58581923E+01                   4
C.*CCC2    4/29/97 THERMC   5H   9    0    0G   300.000  5000.000 1393.000    31
 1.45297209E+01 2.01373011E-02-6.89975129E-06 1.07234966E-09-6.22577646E-14    2