! This is part of the Supplemental Material for the paper:
! "A Shock-Tube Study of the Rate Constant of N2O + M = N2 + O + M (M = Ar) Using N2O Laser Absorption Near 4.6 microns"
! C.R. Mulvihill, S.A. Alturaifi, E.L. Petersen
! Combustion and Flame
!
! All values taken from the Burcat database, specifically the version adapted 
! to CHEMKIN (http://garfield.chem.elte.hu/Burcat/THERM.DAT). Accessed on 
! April 16, 2020.

THERMO ALL
0200.00  1000.00  6000.00
AR                g 5/97AR 1.   0.   0.   0.G   200.000  6000.000 1000.        1
 2.50000000E+00 0.00000000E+00 0.00000000E+00 0.00000000E+00 0.00000000E+00    2
-7.45375000E+02 4.37967491E+00 2.50000000E+00 0.00000000E+00 0.00000000E+00    3
 0.00000000E+00 0.00000000E+00-7.45375000E+02 4.37967491E+00 0.00000000E+00    4
N                 L 6/88N   1    0    0    0G   200.000  6000.000 1000.        1
 0.24159429E+01 0.17489065E-03-0.11902369E-06 0.30226244E-10-0.20360983E-14    2
 0.56133775E+05 0.46496095E+01 0.25000000E+01 0.00000000E+00 0.00000000E+00    3
 0.00000000E+00 0.00000000E+00 0.56104638E+05 0.41939088E+01 0.56850013E+05    4
N2                G 8/02N  2.   0.   0.   0.G   200.000  6000.000 1000.        1
 2.95257637E+00 1.39690040E-03-4.92631603E-07 7.86010195E-11-4.60755204E-15    2
-9.23948688E+02 5.87188762E+00 3.53100528E+00-1.23660988E-04-5.02999433E-07    3
 2.43530612E-09-1.40881235E-12-1.04697628E+03 2.96747038E+00 0.00000000E+00    4
NO                RUS 89N   1O   1    0    0G   200.000  6000.000 1000.        1
 3.26071234E+00 1.19101135E-03-4.29122646E-07 6.94481463E-11-4.03295681E-15    2
 9.92143132E+03 6.36900518E+00 4.21859896E+00-4.63988124E-03 1.10443049E-05    3
-9.34055507E-09 2.80554874E-12 9.84509964E+03 2.28061001E+00 1.09770882E+04    4
NO2               L 7/88N   1O   2    0    0G   200.000  6000.000 1000.        1
 0.48847540E+01 0.21723955E-02-0.82806909E-06 0.15747510E-09-0.10510895E-13    2
 0.23164982E+04-0.11741695E+00 0.39440312E+01-0.15854290E-02 0.16657812E-04    3
-0.20475426E-07 0.78350564E-11 0.28966180E+04 0.63119919E+01 0.41124701E+04    4
NO3               ATcT/AN  1.O  3.   0.   0.G   200.000  6000.000 1000.        1
 7.48347702E+00 2.57772064E-03-1.00945831E-06 1.72314063E-10-1.07154008E-14    2
 6.12990474E+03-1.41618136E+01 2.17359330E+00 1.04902685E-02 1.10472669E-05    3
-2.81561867E-08 1.36583960E-11 7.81290905E+03 1.46022090E+01 8.97563416E+03    4
N2O               L 7/88N   2O   1    0    0G   200.000  6000.000 1000.        1
 0.48230729E+01 0.26270251E-02-0.95850872E-06 0.16000712E-09-0.97752302E-14    2
 0.80734047E+04-0.22017208E+01 0.22571502E+01 0.11304728E-01-0.13671319E-04    3
 0.96819803E-08-0.29307182E-11 0.87417746E+04 0.10757992E+02 0.98141682E+04    4
N2O3  (O=NNO2)    L 4/90N   2O   3    0    0G   200.000  6000.000 1000.        1
 9.08583845E+00 3.37756330E-03-1.31583890E-06 2.30762329E-10-1.47151267E-14    2
 7.27160146E+03-1.55361904E+01 5.81083964E+00 1.43330962E-02-1.96208597E-05    3
 1.73060735E-08-6.46553954E-12 8.19184453E+03 1.20461321E+00 1.04192062E+04    4
N2O4  (O2NNO2)    ATcT AN  2.O  4.   0.   0.G   200.000  6000.000 1000.        1
 1.15752932E+01 4.01615532E-03-1.57178022E-06 2.68273657E-10-1.66921538E-14    2
-2.96111235E+03-3.19488625E+01 3.02002271E+00 2.95904359E-02-3.01342572E-05    3
 1.42360526E-08-2.44100411E-12-6.79238803E+02 1.18059620E+01 1.29712996E+03    4
O                 L 1/90O   1    0    0    0G   200.000  6000.000 1000.        1
 2.54363697E+00-2.73162486E-05-4.19029520E-09 4.95481845E-12-4.79553694E-16    2
 2.92260120E+04 4.92229457E+00 3.16826710E+00-3.27931884E-03 6.64306396E-06    3
-6.12806624E-09 2.11265971E-12 2.91222592E+04 2.05193346E+00 2.99687009E+04    4
O2                RUS 89O   2    0    0    0G   200.000  6000.000 1000.        1
 3.66096065E+00 6.56365811E-04-1.41149627E-07 2.05797935E-11-1.29913436E-15    2
-1.21597718E+03 3.41536279E+00 3.78245636E+00-2.99673416E-03 9.84730201E-06    3
-9.68129509E-09 3.24372837E-12-1.06394356E+03 3.65767573E+00 0.00000000E+00    4
END