THERMO
   300.000  1000.000  5000.000
!
! Hf(0 K) = -50.00, Hf(298 K) = -61.70 kcal/mol
C7H15OOH-1              H 16 C  7 O  2 N  0 G    200.0    3000.0   1000.0      1
 1.21214268E+01 7.24207817E-02-3.86961881E-05 9.82803457E-09-9.70680776E-13    2
-3.91102325E+04-3.79997437E+01 8.62115045E+00 1.98263966E-02 1.62602728E-04    3
-2.26984546E-07 9.06376452E-11-3.55309223E+04-5.84031849E+00                   4


! vib model: harm
! tors model: 1dhrf
! sym model: HCO_model
! energy level: 1.00 x RUb2plypd3/cc-pvtz//RUwb97xd/6-31g*
! tors level: RUwb97xd/6-31g*//RUwb97xd/6-31g*
! reference scheme: cbh2

! Hf(0 K) = -55.18, Hf(298 K) = -65.84 kcal/mol
C7H15OOH-2              H 16 C  7 O  2 N  0 G    200.0    3000.0   1000.0      1
 1.27275320E+01 6.31005321E-02-3.11890698E-05 7.46278874E-09-7.02257427E-13    2
-4.04168359E+04-3.23128322E+01 1.28597640E+01 6.77460670E-03 1.67902320E-04    3
-2.29161673E-07 9.30245079E-11-3.83391394E+04-2.10028987E+01                   4


! vib model: harm
! tors model: 1dhrf
! sym model: HCO_model
! energy level: 1.00 x RUb2plypd3/cc-pvtz//RUwb97xd/6-31g*
! tors level: RUwb97xd/6-31g*//RUwb97xd/6-31g*
! reference scheme: cbh2

! Hf(0 K) = -55.32, Hf(298 K) = -66.04 kcal/mol
C7H15OOH-3              H 16 C  7 O  2 N  0 G    200.0    3000.0   1000.0      1
 1.27819453E+01 6.28778623E-02-3.10297581E-05 7.41539589E-09-6.97051273E-13    2
-4.03018008E+04-3.27538951E+01 8.49647634E+00 4.65464201E-02 6.28239027E-05    3
-1.18751250E-07 5.22328452E-11-3.81794821E+04-4.92323776E+00                   4


! vib model: harm
! tors model: 1dhrf
! sym model: HCO_model
! energy level: 1.00 x RUb2plypd3/cc-pvtz//RUwb97xd/6-31g*
! tors level: RUwb97xd/6-31g*//RUwb97xd/6-31g*
! reference scheme: cbh2

! Hf(0 K) = -54.76, Hf(298 K) = -65.85 kcal/mol
C7H15OOH-4              H 16 C  7 O  2 N  0 G    200.0    3000.0   1000.0      1
 1.18807056E+01 6.56443891E-02-3.30542180E-05 8.02088288E-09-7.62922913E-13    2
-4.01304459E+04-3.01464910E+01 6.91468004E+00 4.96330268E-02 6.41636481E-05    3
-1.23271182E-07 5.42886639E-11-3.77519956E+04 1.56115254E+00                   4


! vib model: harm
! tors model: 1dhrf
! sym model: HCO_model
! energy level: 1.00 x RUb2plypd3/cc-pvtz//RUwb97xd/6-31g*
! tors level: RUwb97xd/6-31g*//RUwb97xd/6-31g*
! reference scheme: cbh2

! Hf(0 K) = -19.71, Hf(298 K) = -29.28 kcal/mol
C7H15-1O2               H 15 C  7 O  2 N  0 G    200.0    3000.0   1000.0      1
 1.12746649E+01 6.36711091E-02-3.22544423E-05 7.87791414E-09-7.53865323E-13    2
-2.15924340E+04-2.44582940E+01 1.87348111E+01-3.15590672E-02 2.39918094E-04    3
-2.87367420E-07 1.10088963E-10-2.05189028E+04-4.61428456E+01                   4


! vib model: harm
! tors model: 1dhrf
! sym model: HCO_model
! energy level: 1.00 x RUb2plypd3/cc-pvtz//RUwb97xd/6-31g*
! tors level: RUwb97xd/6-31g*//RUwb97xd/6-31g*
! reference scheme: cbh2

! Hf(0 K) = -23.62, Hf(298 K) = -33.60 kcal/mol
C7H15-2O2               H 15 C  7 O  2 N  0 G    200.0    3000.0   1000.0      1
 1.21313607E+01 6.13236387E-02-3.05720383E-05 7.37713787E-09-6.99381134E-13    2
-2.39878859E+04-2.92166640E+01 1.45232114E+01-1.00751844E-02 2.02266804E-04    3
-2.60977553E-07 1.03823440E-10-2.21091640E+04-2.74387233E+01                   4


! vib model: harm
! tors model: 1dhrf
! sym model: HCO_model
! energy level: 1.00 x RUb2plypd3/cc-pvtz//RUwb97xd/6-31g*
! tors level: RUwb97xd/6-31g*//RUwb97xd/6-31g*
! reference scheme: cbh2

! Hf(0 K) = -23.81, Hf(298 K) = -33.62 kcal/mol
C7H15-3O2               H 15 C  7 O  2 N  0 G    200.0    3000.0   1000.0      1
 1.15393341E+01 6.13182798E-02-3.03233754E-05 7.27211883E-09-6.86129937E-13    2
-2.36594189E+04-2.51018789E+01 1.35512743E+01 1.59840607E-03 1.64584083E-04    3
-2.17635310E-07 8.70217744E-11-2.20952986E+04-2.36915579E+01                   4


! vib model: harm
! tors model: 1dhrf
! sym model: HCO_model
! energy level: 1.00 x RUb2plypd3/cc-pvtz//RUwb97xd/6-31g*
! tors level: RUwb97xd/6-31g*//RUwb97xd/6-31g*
! reference scheme: cbh2

! Hf(0 K) = -23.77, Hf(298 K) = -33.62 kcal/mol
C7H15-4O2               H 15 C  7 O  2 N  0 G    200.0    3000.0   1000.0      1
 1.16356244E+01 6.10570984E-02-3.01308795E-05 7.21381906E-09-6.79728656E-13    2
-2.36212418E+04-2.64712903E+01 1.21092410E+01 1.43452154E-02 1.30917142E-04    3
-1.82011926E-07 7.37362617E-11-2.19983524E+04-1.90837947E+01                   4


! vib model: harm
! tors model: 1dhrf
! sym model: HCO_model
! energy level: 1.00 x RUb2plypd3/cc-pvtz//RUwb97xd/6-31g*
! tors level: RUwb97xd/6-31g*//RUwb97xd/6-31g*
! reference scheme: cbh2

! Hf(0 K) = -5.98, Hf(298 K) = -16.16 kcal/mol
C7H14OOH1-2             H 15 C  7 O  2 N  0 G    200.0    3000.0   1000.0      1
 2.37839902E+01 4.71950101E-02-2.29429971E-05 5.39847541E-09-5.01073887E-13    2
-1.91802909E+04-9.73134921E+01 9.91461805E+00 1.04632777E-02 2.21225827E-04    3
-3.28544667E-07 1.39874349E-10-1.29239595E+04-1.06394183E+01                   4


! vib model: harm
! tors model: 1dhrf
! sym model: HCO_model
! energy level: 1.00 x RUb2plypd3/cc-pvtz//RUwb97xd/6-31g*
! tors level: RUwb97xd/6-31g*//RUwb97xd/6-31g*
! reference scheme: cbh2

! Hf(0 K) = -6.76, Hf(298 K) = -16.89 kcal/mol
C7H14OOH1-3             H 15 C  7 O  2 N  0 G    200.0    3000.0   1000.0      1
 2.31992278E+01 4.84159562E-02-2.38706923E-05 5.69175608E-09-5.34305473E-13    2
-1.92343908E+04-9.38080438E+01 7.32376686E+00 3.40003257E-02 1.59144532E-04    3
-2.63822945E-07 1.16256264E-10-1.31356276E+04-5.95634274E-01                   4


! vib model: harm
! tors model: 1dhrf
! sym model: HCO_model
! energy level: 1.00 x RUb2plypd3/cc-pvtz//RUwb97xd/6-31g*
! tors level: RUwb97xd/6-31g*//RUwb97xd/6-31g*
! reference scheme: cbh2

! Hf(0 K) = -6.78, Hf(298 K) = -17.48 kcal/mol
C7H14OOH1-4             H 15 C  7 O  2 N  0 G    200.0    3000.0   1000.0      1
 8.60895848E+00 8.32453764E-02-4.96925287E-05 1.36934316E-08-1.43375062E-12    2
-1.61808019E+04-2.04802414E+01 8.67999600E+00 2.10320698E-02 1.50098984E-04    3
-2.05004011E-07 7.96144487E-11-1.32776361E+04-6.01630307E+00                   4


! vib model: harm
! tors model: 1dhrf
! sym model: HCO_model
! energy level: 1.00 x RUb2plypd3/cc-pvtz//RUwb97xd/6-31g*
! tors level: RUwb97xd/6-31g*//RUwb97xd/6-31g*
! reference scheme: cbh2

! Hf(0 K) = -5.81, Hf(298 K) = -17.07 kcal/mol
C7H14OOH1-5             H 15 C  7 O  2 N  0 G    200.0    3000.0   1000.0      1
 7.81926007E-01 8.43115989E-02-3.89982419E-05 7.80205999E-09-5.62529682E-13    2
-1.21340796E+04 2.42277645E+01 7.92911417E+00 2.36576657E-02 1.32860344E-04    3
-1.86676581E-07 7.55642703E-11-1.28461963E+04-4.62410855E+00                   4


! vib model: harm
! tors model: 1dhrf
! sym model: HCO_model
! energy level: 1.00 x RUb2plypd3/cc-pvtz//RUwb97xd/6-31g*
! tors level: RUwb97xd/6-31g*//RUwb97xd/6-31g*
! reference scheme: cbh2

! Hf(0 K) = -6.06, Hf(298 K) = -15.44 kcal/mol
C7H14OOH2-1             H 15 C  7 O  2 N  0 G    200.0    3000.0   1000.0      1
 1.45468900E+01 5.80821393E-02-2.89352447E-05 6.97717518E-09-6.61200323E-13    2
-1.52597005E+04-4.02873221E+01 1.17801537E+01 3.07610913E-02 8.76986090E-05    3
-1.37449625E-07 5.72195304E-11-1.31798376E+04-1.84991800E+01                   4


! vib model: harm
! tors model: 1dhrf
! sym model: HCO_model
! energy level: 1.00 x RUb2plypd3/cc-pvtz//RUwb97xd/6-31g*
! tors level: RUwb97xd/6-31g*//RUwb97xd/6-31g*
! reference scheme: cbh2

! Hf(0 K) = -9.45, Hf(298 K) = -19.67 kcal/mol
C7H14OOH2-3             H 15 C  7 O  2 N  0 G    200.0    3000.0   1000.0      1
 2.42492185E+01 4.51220830E-02-2.15045902E-05 4.99205272E-09-4.58682222E-13    2
-2.07515851E+04-9.91358019E+01 6.21456523E+00 4.61176319E-02 1.25475964E-04    3
-2.29271774E-07 1.03863695E-10-1.45067430E+04 2.96469144E+00                   4


! vib model: harm
! tors model: 1dhrf
! sym model: HCO_model
! energy level: 1.00 x RUb2plypd3/cc-pvtz//RUwb97xd/6-31g*
! tors level: RUwb97xd/6-31g*//RUwb97xd/6-31g*
! reference scheme: cbh2

! Hf(0 K) = -9.85, Hf(298 K) = -19.68 kcal/mol
C7H14OOH2-4             H 15 C  7 O  2 N  0 G    200.0    3000.0   1000.0      1
 1.90579477E+01 5.14323010E-02-2.49950161E-05 5.90998391E-09-5.51606743E-13    2
-1.84515386E+04-6.72815038E+01-1.22197414E+00 1.30568082E-01-1.41285828E-04    3
 8.15651566E-08-1.87718269E-11-1.42456526E+04 3.11535221E+01                   4


! vib model: harm
! tors model: 1dhrf
! sym model: HCO_model
! energy level: 1.00 x RUb2plypd3/cc-pvtz//RUwb97xd/6-31g*
! tors level: RUwb97xd/6-31g*//RUwb97xd/6-31g*
! reference scheme: cbh2

! Hf(0 K) = -9.84, Hf(298 K) = -20.72 kcal/mol
C7H14OOH2-5             H 15 C  7 O  2 N  0 G    200.0    3000.0   1000.0      1
 7.89255646E+00 8.29401450E-02-4.86767796E-05 1.32227441E-08-1.36917487E-12    2
-1.73788118E+04-1.63700179E+01 6.19919329E+00 4.27493160E-02 8.79196548E-05    3
-1.36254677E-07 5.33960038E-11-1.47058595E+04 3.35444456E+00                   4


! vib model: harm
! tors model: 1dhrf
! sym model: HCO_model
! energy level: 1.00 x RUb2plypd3/cc-pvtz//RUwb97xd/6-31g*
! tors level: RUwb97xd/6-31g*//RUwb97xd/6-31g*
! reference scheme: cbh2

! Hf(0 K) = -10.66, Hf(298 K) = -21.79 kcal/mol
C7H14OOH2-6             H 15 C  7 O  2 N  0 G    200.0    3000.0   1000.0      1
-6.96991385E+00 1.11118545E-01-6.57718951E-05 1.77055876E-08-1.80687462E-12    2
-1.32789190E+04 6.26630761E+01 7.94512200E+00 2.89142786E-02 9.97647416E-05    3
-1.29421452E-07 4.70727590E-11-1.52648672E+04-4.10795497E+00                   4


! vib model: harm
! tors model: 1dhrf
! sym model: HCO_model
! energy level: 1.00 x RUb2plypd3/cc-pvtz//RUwb97xd/6-31g*
! tors level: RUwb97xd/6-31g*//RUwb97xd/6-31g*
! reference scheme: cbh2

! Hf(0 K) = -7.07, Hf(298 K) = -16.90 kcal/mol
C7H14OOH3-1             H 15 C  7 O  2 N  0 G    200.0    3000.0   1000.0      1
 1.49274720E+01 5.80824956E-02-2.90293173E-05 7.00545269E-09-6.63539040E-13    2
-1.61529323E+04-4.39467651E+01 6.68162884E+00 5.75108707E-02 4.16973962E-05    3
-1.04564115E-07 4.89967835E-11-1.32365204E+04 2.99654482E+00                   4


! vib model: harm
! tors model: 1dhrf
! sym model: HCO_model
! energy level: 1.00 x RUb2plypd3/cc-pvtz//RUwb97xd/6-31g*
! tors level: RUwb97xd/6-31g*//RUwb97xd/6-31g*
! reference scheme: cbh2

! Hf(0 K) = -9.88, Hf(298 K) = -19.26 kcal/mol
C7H14OOH3-2             H 15 C  7 O  2 N  0 G    200.0    3000.0   1000.0      1
 1.37420476E+01 5.78715641E-02-2.83389871E-05 6.73001124E-09-6.29369960E-13    2
-1.68587673E+04-3.46692741E+01 1.20330909E+01 2.41615696E-02 1.06745768E-04    3
-1.60827894E-07 6.72627315E-11-1.50120089E+04-1.78169925E+01                   4


! vib model: harm
! tors model: 1dhrf
! sym model: HCO_model
! energy level: 1.00 x RUb2plypd3/cc-pvtz//RUwb97xd/6-31g*
! tors level: RUwb97xd/6-31g*//RUwb97xd/6-31g*
! reference scheme: cbh2

! Hf(0 K) = -9.65, Hf(298 K) = -19.30 kcal/mol
C7H14OOH3-4             H 15 C  7 O  2 N  0 G    200.0    3000.0   1000.0      1
 1.61455946E+01 5.65243093E-02-2.82727215E-05 6.84173087E-09-6.50362978E-13    2
-1.76523639E+04-5.10569985E+01 6.97926522E+00 6.81344755E-02 4.04231429E-07    3
-5.09330312E-08 2.60036094E-11-1.47372059E+04-1.09211994E+00                   4


! vib model: harm
! tors model: 1dhrf
! sym model: HCO_model
! energy level: 1.00 x RUb2plypd3/cc-pvtz//RUwb97xd/6-31g*
! tors level: RUwb97xd/6-31g*//RUwb97xd/6-31g*
! reference scheme: cbh2

! Hf(0 K) = -10.03, Hf(298 K) = -20.01 kcal/mol
C7H14OOH3-5             H 15 C  7 O  2 N  0 G    200.0    3000.0   1000.0      1
 1.76370348E+01 5.43979091E-02-2.70280253E-05 6.50899106E-09-6.16659616E-13    2
-1.88145557E+04-6.04339274E+01 9.31686273E+00 3.23289668E-02 1.16554915E-04    3
-1.87499682E-07 8.01981877E-11-1.49816937E+04-8.21689697E+00                   4


! vib model: harm
! tors model: 1dhrf
! sym model: HCO_model
! energy level: 1.00 x RUb2plypd3/cc-pvtz//RUwb97xd/6-31g*
! tors level: RUwb97xd/6-31g*//RUwb97xd/6-31g*
! reference scheme: cbh2

! Hf(0 K) = -9.70, Hf(298 K) = -20.17 kcal/mol
C7H14OOH3-6             H 15 C  7 O  2 N  0 G    200.0    3000.0   1000.0      1
 1.50405865E+01 6.60833985E-02-3.68393127E-05 9.74530184E-09-9.95648508E-13    2
-1.92807113E+04-5.24821171E+01 1.30461570E+01-8.54642733E-03 2.17524755E-04    3
-2.72650349E-07 1.03660190E-10-1.50916464E+04-2.32893703E+01                   4


! vib model: harm
! tors model: 1dhrf
! sym model: HCO_model
! energy level: 1.00 x RUb2plypd3/cc-pvtz//RUwb97xd/6-31g*
! tors level: RUwb97xd/6-31g*//RUwb97xd/6-31g*
! reference scheme: cbh2

! Hf(0 K) = -6.78, Hf(298 K) = -18.02 kcal/mol
C7H14OOH3-7             H 15 C  7 O  2 N  0 G    200.0    3000.0   1000.0      1
 9.45586685E+00 8.07362981E-02-4.67142288E-05 1.25105896E-08-1.28065414E-12    2
-1.68616523E+04-2.69036849E+01 8.95040589E+00 6.62374082E-03 1.98872082E-04    3
-2.60409611E-07 1.00671254E-10-1.33223477E+04-6.60725918E+00                   4


! vib model: harm
! tors model: 1dhrf
! sym model: HCO_model
! energy level: 1.00 x RUb2plypd3/cc-pvtz//RUwb97xd/6-31g*
! tors level: RUwb97xd/6-31g*//RUwb97xd/6-31g*
! reference scheme: cbh2

! Hf(0 K) = -7.09, Hf(298 K) = -17.29 kcal/mol
C7H14OOH4-1             H 15 C  7 O  2 N  0 G    200.0    3000.0   1000.0      1
 1.94401816E+01 5.39611204E-02-2.76918341E-05 6.86978141E-09-6.67744729E-13    2
-1.82588422E+04-7.26028962E+01 5.95243704E+00 5.13716144E-02 8.47003530E-05    3
-1.62245148E-07 7.21322479E-11-1.32216733E+04 5.13219954E+00                   4


! vib model: harm
! tors model: 1dhrf
! sym model: HCO_model
! energy level: 1.00 x RUb2plypd3/cc-pvtz//RUwb97xd/6-31g*
! tors level: RUwb97xd/6-31g*//RUwb97xd/6-31g*
! reference scheme: cbh2

! Hf(0 K) = -10.04, Hf(298 K) = -19.37 kcal/mol
C7H14OOH4-2             H 15 C  7 O  2 N  0 G    200.0    3000.0   1000.0      1
 1.38714108E+01 5.73759839E-02-2.79226631E-05 6.59287191E-09-6.13369606E-13    2
-1.68198335E+04-3.57861825E+01 1.09825994E+01 3.58865587E-02 7.51522469E-05    3
-1.28450305E-07 5.57331334E-11-1.50531193E+04-1.49512440E+01                   4


! vib model: harm
! tors model: 1dhrf
! sym model: HCO_model
! energy level: 1.00 x RUb2plypd3/cc-pvtz//RUwb97xd/6-31g*
! tors level: RUwb97xd/6-31g*//RUwb97xd/6-31g*
! reference scheme: cbh2

! Hf(0 K) = -9.28, Hf(298 K) = -18.86 kcal/mol
C7H14OOH4-3             H 15 C  7 O  2 N  0 G    200.0    3000.0   1000.0      1
 1.51767673E+01 5.53683292E-02-2.68653053E-05 6.34808415E-09-5.92125891E-13    2
-1.71452667E+04-4.31473790E+01 1.12369580E+01 2.75611989E-02 1.03419148E-04    3
-1.60232342E-07 6.74507866E-11-1.46935193E+04-1.47511563E+01                   4


! vib model: harm
! tors model: 1dhrf
! sym model: HCO_model
! energy level: 1.00 x RUb2plypd3/cc-pvtz//RUwb97xd/6-31g*
! tors level: RUwb97xd/6-31g*//RUwb97xd/6-31g*
! reference scheme: cbh2

! Hf(0 K) = -40.32, Hf(298 K) = -51.67 kcal/mol
C7H14OOH1-2O2           H 15 C  7 O  4 N  0 G    200.0    3000.0   1000.0      1
 9.28002580E+00 8.70131974E-02-5.04666687E-05 1.35696299E-08-1.39223904E-12    2
-3.34907398E+04-1.60763306E+01 1.18376935E+01 1.38272982E-02 1.76220069E-04    3
-2.37019460E-07 9.31383440E-11-3.12765481E+04-1.40044924E+01                   4


! vib model: harm
! tors model: 1dhrf
! sym model: HCO_model
! energy level: 1.00 x RUb2plypd3/cc-pvtz//RUwb97xd/6-31g*
! tors level: RUwb97xd/6-31g*//RUwb97xd/6-31g*
! reference scheme: cbh2

! Hf(0 K) = -40.28, Hf(298 K) = -52.05 kcal/mol
C7H14OOH1-3O2           H 15 C  7 O  4 N  0 G    200.0    3000.0   1000.0      1
 1.34786340E+01 8.01660588E-02-4.54206731E-05 1.20018217E-08-1.21737940E-12    2
-3.51142468E+04-4.18414092E+01 1.03083066E+01 1.73806902E-02 1.88837340E-04    3
-2.62831690E-07 1.05313816E-10-3.12351004E+04-9.30682926E+00                   4


! vib model: harm
! tors model: 1dhrf
! sym model: HCO_model
! energy level: 1.00 x RUb2plypd3/cc-pvtz//RUwb97xd/6-31g*
! tors level: RUwb97xd/6-31g*//RUwb97xd/6-31g*
! reference scheme: cbh2

! Hf(0 K) = -41.11, Hf(298 K) = -53.35 kcal/mol
C7H14OOH1-4O2           H 15 C  7 O  4 N  0 G    200.0    3000.0   1000.0      1
-7.04350154E+00 1.22393001E-01-7.39531604E-05 2.02332132E-08-2.09108770E-12    2
-2.97621149E+04 6.73987648E+01 8.73412372E+00 2.68418718E-02 1.31107914E-04    3
-1.71069798E-07 6.39243527E-11-3.14952024E+04-1.30480744E+00                   4


! vib model: harm
! tors model: 1dhrf
! sym model: HCO_model
! energy level: 1.00 x RUb2plypd3/cc-pvtz//RUwb97xd/6-31g*
! tors level: RUwb97xd/6-31g*//RUwb97xd/6-31g*
! reference scheme: cbh2

! Hf(0 K) = -41.04, Hf(298 K) = -53.46 kcal/mol
C7H14OOH1-5O2           H 15 C  7 O  4 N  0 G    200.0    3000.0   1000.0      1
-8.75906381E+00 1.15406747E-01-6.12487961E-05 1.47477257E-08-1.35747588E-12    2
-2.81375886E+04 7.77045951E+01 8.53524779E+00 2.85340255E-02 1.27039438E-04    3
-1.75131383E-07 6.98118074E-11-3.15223641E+04-3.53095798E+00                   4


! vib model: harm
! tors model: 1dhrf
! sym model: HCO_model
! energy level: 1.00 x RUb2plypd3/cc-pvtz//RUwb97xd/6-31g*
! tors level: RUwb97xd/6-31g*//RUwb97xd/6-31g*
! reference scheme: cbh2

! Hf(0 K) = -39.28, Hf(298 K) = -51.13 kcal/mol
C7H14OOH2-1O2           H 15 C  7 O  4 N  0 G    200.0    3000.0   1000.0      1
 1.15860526E+01 8.24850848E-02-4.57796109E-05 1.17915962E-08-1.16750435E-12    2
-3.39331769E+04-3.09317834E+01 9.57992159E+00 2.47589105E-02 1.63166166E-04    3
-2.31312529E-07 9.27231495E-11-3.07146503E+04-6.25859035E+00                   4


! vib model: harm
! tors model: 1dhrf
! sym model: HCO_model
! energy level: 1.00 x RUb2plypd3/cc-pvtz//RUwb97xd/6-31g*
! tors level: RUwb97xd/6-31g*//RUwb97xd/6-31g*
! reference scheme: cbh2

! Hf(0 K) = -43.06, Hf(298 K) = -54.86 kcal/mol
C7H14OOH2-3O2           H 15 C  7 O  4 N  0 G    200.0    3000.0   1000.0      1
 4.82857383E+00 9.43326870E-02-5.30939040E-05 1.37489595E-08-1.36070695E-12    2
-3.33732697E+04 4.94295499E+00 8.89125439E+00 3.46730435E-02 1.27669058E-04    3
-1.91068071E-07 7.82903245E-11-3.25863979E+04-5.48329992E+00                   4


! vib model: harm
! tors model: 1dhrf
! sym model: HCO_model
! energy level: 1.00 x RUb2plypd3/cc-pvtz//RUwb97xd/6-31g*
! tors level: RUwb97xd/6-31g*//RUwb97xd/6-31g*
! reference scheme: cbh2

! Hf(0 K) = -45.77, Hf(298 K) = -57.54 kcal/mol
C7H14OOH2-4O2           H 15 C  7 O  4 N  0 G    200.0    3000.0   1000.0      1
 2.31073278E+00 1.03876613E-01-6.21894373E-05 1.69519535E-08-1.74831515E-12    2
-3.43947569E+04 1.69692555E+01 8.39407399E+00 4.30860077E-02 9.46692911E-05    3
-1.42707653E-07 5.57598273E-11-3.39557650E+04-3.84890228E+00                   4


! vib model: harm
! tors model: 1dhrf
! sym model: HCO_model
! energy level: 1.00 x RUb2plypd3/cc-pvtz//RUwb97xd/6-31g*
! tors level: RUwb97xd/6-31g*//RUwb97xd/6-31g*
! reference scheme: cbh2

! Hf(0 K) = -47.41, Hf(298 K) = -59.41 kcal/mol
C7H14OOH2-5O2           H 15 C  7 O  4 N  0 G    200.0    3000.0   1000.0      1
-5.46588997E+00 1.14847187E-01-6.55792527E-05 1.69705457E-08-1.66802552E-12    2
-3.25399334E+04 5.90481065E+01 9.16840282E+00 3.30380358E-02 1.14607295E-04    3
-1.61146353E-07 6.34371843E-11-3.48236503E+04-7.23013213E+00                   4


! vib model: harm
! tors model: 1dhrf
! sym model: HCO_model
! energy level: 1.00 x RUb2plypd3/cc-pvtz//RUwb97xd/6-31g*
! tors level: RUwb97xd/6-31g*//RUwb97xd/6-31g*
! reference scheme: cbh2

! Hf(0 K) = -45.35, Hf(298 K) = -57.71 kcal/mol
C7H14OOH2-6O2           H 15 C  7 O  4 N  0 G    200.0    3000.0   1000.0      1
-6.76492675E+00 1.20877179E-01-7.13209375E-05 1.91857147E-08-1.96227903E-12    2
-3.18029871E+04 6.28640828E+01 7.98210502E+00 3.66376034E-02 1.06532675E-04    3
-1.47119088E-07 5.59814546E-11-3.37273146E+04-2.74303353E+00                   4


! vib model: harm
! tors model: 1dhrf
! sym model: HCO_model
! energy level: 1.00 x RUb2plypd3/cc-pvtz//RUwb97xd/6-31g*
! tors level: RUwb97xd/6-31g*//RUwb97xd/6-31g*
! reference scheme: cbh2

! Hf(0 K) = -41.15, Hf(298 K) = -52.63 kcal/mol
C7H14OOH3-1O2           H 15 C  7 O  4 N  0 G    200.0    3000.0   1000.0      1
 6.57767505E+00 9.15600731E-02-5.11370322E-05 1.30948366E-08-1.28057493E-12    2
-3.29039396E+04-3.18097997E+00 1.15775969E+01 1.61727174E-02 1.73141848E-04    3
-2.35493830E-07 9.34166460E-11-3.17620876E+04-1.52827171E+01                   4


! vib model: harm
! tors model: 1dhrf
! sym model: HCO_model
! energy level: 1.00 x RUb2plypd3/cc-pvtz//RUwb97xd/6-31g*
! tors level: RUwb97xd/6-31g*//RUwb97xd/6-31g*
! reference scheme: cbh2

! Hf(0 K) = -43.34, Hf(298 K) = -55.22 kcal/mol
C7H14OOH3-2O2           H 15 C  7 O  4 N  0 G    200.0    3000.0   1000.0      1
 7.36052644E+00 8.87386983E-02-4.89376435E-05 1.24662919E-08-1.21856739E-12    2
-3.43752689E+04-8.54432983E+00 9.47744881E+00 2.65564776E-02 1.54677470E-04    3
-2.23580549E-07 9.12784584E-11-3.27604804E+04-7.23482383E+00                   4


! vib model: harm
! tors model: 1dhrf
! sym model: HCO_model
! energy level: 1.00 x RUb2plypd3/cc-pvtz//RUwb97xd/6-31g*
! tors level: RUwb97xd/6-31g*//RUwb97xd/6-31g*
! reference scheme: cbh2

! Hf(0 K) = -43.65, Hf(298 K) = -54.06 kcal/mol
C7H14OOH3-4O2           H 15 C  7 O  4 N  0 G    200.0    3000.0   1000.0      1
 1.84444708E+01 6.19902616E-02-3.19875293E-05 7.95936115E-09-7.74643389E-13    2
-3.64118724E+04-6.03528108E+01 1.36688073E+01 2.83497389E-02 1.19230495E-04    3
-1.79877268E-07 7.42601467E-11-3.32697567E+04-2.54786742E+01                   4


! vib model: harm
! tors model: 1dhrf
! sym model: HCO_model
! energy level: 1.00 x RUb2plypd3/cc-pvtz//RUwb97xd/6-31g*
! tors level: RUwb97xd/6-31g*//RUwb97xd/6-31g*
! reference scheme: cbh2

! Hf(0 K) = -45.26, Hf(298 K) = -57.24 kcal/mol
C7H14OOH3-5O2           H 15 C  7 O  4 N  0 G    200.0    3000.0   1000.0      1
 1.04217108E+00 1.06157284E-01-6.29985688E-05 1.69775651E-08-1.73150024E-12    2
-3.38604446E+04 2.30137361E+01 9.06722630E+00 3.10978217E-02 1.34668760E-04    3
-1.90669413E-07 7.52825557E-11-3.37359451E+04-6.23343854E+00                   4


! vib model: harm
! tors model: 1dhrf
! sym model: HCO_model
! energy level: 1.00 x RUb2plypd3/cc-pvtz//RUwb97xd/6-31g*
! tors level: RUwb97xd/6-31g*//RUwb97xd/6-31g*
! reference scheme: cbh2

! Hf(0 K) = -46.74, Hf(298 K) = -59.05 kcal/mol
C7H14OOH3-6O2           H 15 C  7 O  4 N  0 G    200.0    3000.0   1000.0      1
 6.95081933E-01 1.01274298E-01-5.54401439E-05 1.38577809E-08-1.32507993E-12    2
-3.42640465E+04 2.55031311E+01 7.99830884E+00 3.40507082E-02 1.27917993E-04    3
-1.85700718E-07 7.47956453E-11-3.44093776E+04-1.91193315E+00                   4


! vib model: harm
! tors model: 1dhrf
! sym model: HCO_model
! energy level: 1.00 x RUb2plypd3/cc-pvtz//RUwb97xd/6-31g*
! tors level: RUwb97xd/6-31g*//RUwb97xd/6-31g*
! reference scheme: cbh2

! Hf(0 K) = -41.40, Hf(298 K) = -53.90 kcal/mol
C7H14OOH3-7O2           H 15 C  7 O  4 N  0 G    200.0    3000.0   1000.0      1
-8.72558934E+00 1.20471356E-01-6.70551161E-05 1.69322193E-08-1.63258394E-12    2
-2.89317197E+04 7.47629224E+01 8.48498523E+00 2.72212304E-02 1.33982709E-04    3
-1.79132392E-07 6.94337526E-11-3.17269547E+04-3.80401620E+00                   4


! vib model: harm
! tors model: 1dhrf
! sym model: HCO_model
! energy level: 1.00 x RUb2plypd3/cc-pvtz//RUwb97xd/6-31g*
! tors level: RUwb97xd/6-31g*//RUwb97xd/6-31g*
! reference scheme: cbh2

! Hf(0 K) = -41.82, Hf(298 K) = -53.93 kcal/mol
C7H14OOH4-1O2           H 15 C  7 O  4 N  0 G    200.0    3000.0   1000.0      1
-7.42571792E+00 1.21103360E-01-7.05421883E-05 1.85808294E-08-1.85668284E-12    2
-2.96070826E+04 6.90375684E+01 9.48347028E+00 2.60434424E-02 1.30313555E-04    3
-1.69993688E-07 6.40128206E-11-3.19684978E+04-6.74412333E+00                   4


! vib model: harm
! tors model: 1dhrf
! sym model: HCO_model
! energy level: 1.00 x RUb2plypd3/cc-pvtz//RUwb97xd/6-31g*
! tors level: RUwb97xd/6-31g*//RUwb97xd/6-31g*
! reference scheme: cbh2

! Hf(0 K) = -44.91, Hf(298 K) = -57.00 kcal/mol
C7H14OOH4-2O2           H 15 C  7 O  4 N  0 G    200.0    3000.0   1000.0      1
 1.97942252E+00 1.01582421E-01-5.78930544E-05 1.50409155E-08-1.48733253E-12    2
-3.38170274E+04 1.84100983E+01 7.77896080E+00 3.72260604E-02 1.23390637E-04    3
-1.82929675E-07 7.37563903E-11-3.34223790E+04-7.57911057E-01                   4


! vib model: harm
! tors model: 1dhrf
! sym model: HCO_model
! energy level: 1.00 x RUb2plypd3/cc-pvtz//RUwb97xd/6-31g*
! tors level: RUwb97xd/6-31g*//RUwb97xd/6-31g*
! reference scheme: cbh2

! Hf(0 K) = -43.77, Hf(298 K) = -55.55 kcal/mol
C7H14OOH4-3O2           H 15 C  7 O  4 N  0 G    200.0    3000.0   1000.0      1
 8.82891757E+00 8.70198568E-02-4.91824300E-05 1.28756767E-08-1.29073181E-12    2
-3.50780374E+04-1.62521631E+01 7.38844316E+00 4.60891579E-02 1.00802176E-04    3
-1.63893303E-07 6.78648156E-11-3.28059467E+04 1.27078415E+00                   4


! vib model: harm
! tors model: 1dhrf
! sym model: HCO_model
! energy level: 1.00 x RUb2plypd3/cc-pvtz//RUwb97xd/6-31g*
! tors level: RUwb97xd/6-31g*//RUwb97xd/6-31g*
! reference scheme: cbh2

! Hf(0 K) = -27.67, Hf(298 K) = -38.62 kcal/mol
C7H13Q12-3              H 15 C  7 O  4 N  0 G    200.0    3000.0   1000.0      1
 1.05665819E+01 8.56437951E-02-4.95508130E-05 1.32504473E-08-1.35144312E-12    2
-2.69343636E+04-2.19140890E+01 7.85044669E+00 5.71924540E-02 6.64613043E-05    3
-1.27059231E-07 5.41135944E-11-2.46788515E+04 1.97224075E-01                   4


! vib model: harm
! tors model: 1dhrf
! sym model: HCO_model
! energy level: 1.00 x RUb2plypd3/cc-pvtz//RUwb97xd/6-31g*
! tors level: RUwb97xd/6-31g*//RUwb97xd/6-31g*
! reference scheme: cbh2

! Hf(0 K) = -27.37, Hf(298 K) = -38.33 kcal/mol
C7H13Q12-4              H 15 C  7 O  4 N  0 G    200.0    3000.0   1000.0      1
 1.11596666E+01 8.63939557E-02-5.02347994E-05 1.35010921E-08-1.38506570E-12    2
-2.70744510E+04-2.73058313E+01 8.33490114E+00 6.70180408E-02 2.25221826E-05    3
-6.38104025E-08 2.53701273E-11-2.48372203E+04-5.71391918E+00                   4


! vib model: harm
! tors model: 1dhrf
! sym model: HCO_model
! energy level: 1.00 x RUb2plypd3/cc-pvtz//RUwb97xd/6-31g*
! tors level: RUwb97xd/6-31g*//RUwb97xd/6-31g*
! reference scheme: cbh2

! Hf(0 K) = -28.56, Hf(298 K) = -39.70 kcal/mol
C7H13Q12-5              H 15 C  7 O  4 N  0 G    200.0    3000.0   1000.0      1
 1.85516447E+01 7.25565678E-02-4.08571992E-05 1.06899821E-08-1.07278429E-12    2
-3.00089661E+04-6.79650726E+01 6.10739981E+00 7.10671107E-02 5.17655672E-05    3
-1.24538322E-07 5.54664552E-11-2.51950200E+04 4.11609130E+00                   4


! vib model: harm
! tors model: 1dhrf
! sym model: HCO_model
! energy level: 1.00 x RUb2plypd3/cc-pvtz//RUwb97xd/6-31g*
! tors level: RUwb97xd/6-31g*//RUwb97xd/6-31g*
! reference scheme: cbh2

! Hf(0 K) = -26.67, Hf(298 K) = -37.87 kcal/mol
C7H13Q12-6              H 15 C  7 O  4 N  0 G    200.0    3000.0   1000.0      1
 1.22196821E+01 8.60985521E-02-5.07017524E-05 1.37776554E-08-1.42602044E-12    2
-2.74946798E+04-3.50205863E+01 9.05149442E+00 4.61677479E-02 1.00772280E-04    3
-1.61568994E-07 6.55455891E-11-2.44100935E+04-7.23575221E+00                   4


! vib model: harm
! tors model: 1dhrf
! sym model: HCO_model
! energy level: 1.00 x RUb2plypd3/cc-pvtz//RUwb97xd/6-31g*
! tors level: RUwb97xd/6-31g*//RUwb97xd/6-31g*
! reference scheme: cbh2

! Hf(0 K) = -27.66, Hf(298 K) = -39.42 kcal/mol
C7H13Q13-2              H 15 C  7 O  4 N  0 G    200.0    3000.0   1000.0      1
-2.54098444E+00 1.09829786E-01-6.15638045E-05 1.55727781E-08-1.49502496E-12    2
-2.32000820E+04 4.51006254E+01 7.94674949E+00 4.58266958E-02 9.25306449E-05    3
-1.47184836E-07 6.06834965E-11-2.47973878E+04-1.68230040E+00                   4


! vib model: harm
! tors model: 1dhrf
! sym model: HCO_model
! energy level: 1.00 x RUb2plypd3/cc-pvtz//RUwb97xd/6-31g*
! tors level: RUwb97xd/6-31g*//RUwb97xd/6-31g*
! reference scheme: cbh2

! Hf(0 K) = -27.84, Hf(298 K) = -39.83 kcal/mol
C7H13Q13-4              H 15 C  7 O  4 N  0 G    200.0    3000.0   1000.0      1
 5.13900939E+00 9.04657770E-02-4.73288354E-05 1.13508543E-08-1.04808874E-12    2
-2.58820572E+04 7.04400827E+00 7.87658022E+00 3.70411949E-02 1.17764415E-04    3
-1.74421520E-07 7.03180463E-11-2.47685539E+04 3.09408685E+00                   4


! vib model: harm
! tors model: 1dhrf
! sym model: HCO_model
! energy level: 1.00 x RUb2plypd3/cc-pvtz//RUwb97xd/6-31g*
! tors level: RUwb97xd/6-31g*//RUwb97xd/6-31g*
! reference scheme: cbh2

! Hf(0 K) = -28.57, Hf(298 K) = -40.35 kcal/mol
C7H13Q13-5              H 15 C  7 O  4 N  0 G    200.0    3000.0   1000.0      1
 1.00039902E+01 7.55270941E-02-3.34938533E-05 6.65651190E-09-5.04133918E-13    2
-2.70091181E+04-1.93649315E+01 7.94017763E+00 4.98294692E-02 7.41763470E-05    3
-1.27132960E-07 5.33765754E-11-2.53153337E+04-2.11978137E+00                   4


! vib model: harm
! tors model: 1dhrf
! sym model: HCO_model
! energy level: 1.00 x RUb2plypd3/cc-pvtz//RUwb97xd/6-31g*
! tors level: RUwb97xd/6-31g*//RUwb97xd/6-31g*
! reference scheme: cbh2

! Hf(0 K) = -29.31, Hf(298 K) = -41.11 kcal/mol
C7H13Q13-6              H 15 C  7 O  4 N  0 G    200.0    3000.0   1000.0      1
 5.40928535E+00 8.70563740E-02-4.23172247E-05 9.32828503E-09-7.91018890E-13    2
-2.61729441E+04 4.90217983E+00 7.84333577E+00 4.70302061E-02 8.31615059E-05    3