units(length='cm', time='s', quantity='mol', act_energy='cal/mol')

ideal_gas(name='gas',
          elements="C O He N Ar H",
          species="""H              O              O2
                     HO             H2             HO2
                     H2O            CH3            C2H5
                     C2H4O2         C3H6O2         C4H8
                     C4H8O(5)       C4H8O(3)       C4H8O(4)
                     C4H9(2)        C4H9           C4H8O
                     C4H8O2(9)      C4H8O2(6)      C4H8O2(2)
                     C4H10          C4H9O2(4)      C4H9O2(6)
                     C4H9O2(8)      C4H9O2(2)      C4H9O2(9)
                     C4H9O2         C4H9O2(3)      C4H9O2(7)
                     C4H8(3)        C4H8O(109)     C4H8O(110)
                     HE             N2             AR
                     H2O2           CO             CO2
                     CH2O           HCO            HO2CHO
                     O2CHO          HOCHO          OCHO
                     HOCH2O2H       HOCH2O2        OCH2O2H
                     HOCH2O         CH3OH          CH2OH
                     CH3O           CH3O2H         CH3O2
                     CH4            CH2            CH2(S)
                     C              CH             C2H6
                     C2H4           C2H3           C2H2
                     C2H            CH3CHO         CH3CO
                     CH2CHO         CH2CO          HCCO
                     HCCOH          CH3CO3H        CH3CO3
                     CH3CO2         C2H5OH         C2H5O
                     PC2H4OH        SC2H4OH        O2C2H4OH
                     C2H5O2H        C2H5O2         C2H4O2H
                     C2H4O1-2       C2H3O1-2       CH3COCH3
                     CH3COCH2       CH3COCH2O2     C3KET21
                     C2H3CHO        C2H3CO         C2H5CHO
                     C2H5CO         CH3OCH3        CH3OCH2
                     CH3OCH2O2      CH2OCH2O2H     CH3OCH2O2H
                     CH3OCH2O       O2CH2OCH2O2H   HO2CH2OCHO
                     OCH2OCHO       HOCH2OCO       CH3OCHO
                     CH3OCO         CH2OCHO        C3H8
                     IC3H7          NC3H7          C3H6
                     C3H5-A         C3H5-S         C3H5-T
                     C3H4-P         C3H4-A         C3H3
                     C3H5O          C3H6OOH1-2     C3H6OOH1-3
                     C3H6OOH2-1     C3H6OOH2-2     C3H6OOH1-2O2
                     C3H6OOH1-3O2   C3H6OOH2-1O2   NC3H7O2H
                     IC3H7O2H       NC3H7O2        IC3H7O2
                     NC3H7O         IC3H7O         C3H6O1-2
                     C3H6O1-3       C3KET12        C3KET13
                     C3H51-2,3OOH   C3H52-1,3OOH   CH3CHCO
                     AC3H5OOH       C4H71-1        C4H71-2
                     C4H71-3        C4H71-4        C4H72-2
                     C4H6           PC4H9O2H       SC4H9O2H
                     PC4H9O         SC4H9O         C4H8OH-1O2
                     C4H8OH-2O2     PC4H8OH        SC4H8OH
                     C4H8OOH1-1     C4H8OOH2-2     C4H8OOH1-2O2
                     C4H8OOH1-3O2   C4H8OOH1-4O2   C4H8OOH2-1O2
                     C4H8OOH2-3O2   C4H8OOH2-4O2   NC4KET12
                     NC4KET13       NC4KET14       NC4KET21
                     NC4KET23       NC4KET24       C2H5COCH2
                     CH2CH2COCH3    CH3CHCOCH3     C2H3COCH3
                     CH3CHOOCOCH3   CH2CHOOHCOCH3  NC3H7CO
                     C3H6CHO-3      C3H6CHO-2      C3H6CHO-1
                     C2H5CHCO       SC3H5CHO       SC3H5CO
                     CH2CH2CHO      IC4H10         IC4H9
                     IC4H8          IC4H7          TC4H9
                     TC4H9O2        TC3H6OH        IC4H9O2
                     TC4H8O2H-I     IC4H8O2H-I     IC4H8O2H-T
                     IC4H8O         CC4H8O         IC4H9O
                     TC4H9O         IC4H9O2H       TC4H9O2H
                     IC4H7O         IC4H8OH        IO2C4H8OH
                     IC3H7CHO       TC3H6CHO       IC3H7CO
                     IC3H6CHO       TC4H8OOH-IO2   IC4H8OOH-IO2
                     IC4H8OOH-TO2   IC4KETII       IC4KETIT
                     IC4H7OH        IC4H6OH        IC3H5CHO
                     IC3H5CO        TC3H6OCHO      IC3H6CO
                     IC4H7OOH       TC3H6OHCHO     IC3H5OH
                     TC3H6O2CHO     TC3H6O2HCO     IC3H5O2HCHO
                     CH2CCH2OH      TC4H8CHO       O2C4H8CHO
                     O2HC4H8CO      C3H5OH         TIC4H7Q2-I
                     IIC4H7Q2-T     IIC4H7Q2-I     CH2O2H
                     C3H2           CH3COCH2O      CH3COCH2O2H
                     C4H7O          HOC3H6O2       C3H6OH""",
          reactions='all',
          initial_state=state(temperature=300.0, pressure=OneAtm))

#-------------------------------------------------------------------------------
# Species data
#-------------------------------------------------------------------------------

species(name='H',
        atoms='H:1',
        thermo=(NASA([200.00, 1000.00],
                     [ 2.49929216E+00,  1.08315920E-06,  3.56328243E-09,
                      -9.26844763E-12,  5.08428347E-15,  2.54025550E+04,
                      -4.57956552E-01]),
                NASA([1000.00, 3000.00],
                     [ 2.49856327E+00,  2.55065221E-06, -1.88408471E-09,
                       5.93128518E-13, -6.85305400E-17,  2.54029310E+04,
                      -4.53664370E-01])))

species(name='O',
        atoms='O:1',
        thermo=(NASA([200.00, 1000.00],
                     [ 3.16830791E+00, -3.28278018E-03,  6.65718476E-06,
                      -6.14778662E-09,  2.12143420E-12,  2.87804913E+04,
                       2.03645157E+00]),
                NASA([1000.00, 3000.00],
                     [ 2.59483570E+00, -1.47120796E-04,  9.20802639E-08,
                      -2.62537188E-11,  2.81861859E-15,  2.88678419E+04,
                       4.63389303E+00])))

species(name='O2',
        atoms='O:2',
        thermo=(NASA([200.00, 1000.00],
                     [ 3.78045627E+00, -3.11572602E-03,  1.06407960E-05,
                      -1.09016398E-08,  3.78707230E-12, -1.21325339E+03,
                       3.66919024E+00]),
                NASA([1000.00, 3000.00],
                     [ 3.13826340E+00,  1.87006882E-03, -1.07672462E-06,
                       2.89046212E-10, -2.96950151E-14, -1.19243575E+03,
                       6.20223010E+00])))

species(name='HO',
        atoms='H:1 O:1',
        thermo=(NASA([200.00, 1000.00],
                     [ 4.11857534E+00, -3.21517781E-03,  6.49470417E-06,
                      -5.78585421E-09,  2.05661052E-12,  3.27406651E+03,
                      -6.92851460E-01]),
                NASA([1000.00, 3000.00],
                     [ 3.23311904E+00,  2.14302336E-04,  3.84136771E-07,
                      -1.87700954E-10,  2.50008092E-14,  3.48842216E+03,
                       3.69131884E+00])))

species(name='H2',
        atoms='H:2',
        thermo=(NASA([200.00, 1000.00],
                     [ 3.48584934E+00,  1.31286328E-04, -4.13647405E-07,
                       4.53045832E-10, -7.13890007E-14, -1.01733170E+03,
                      -4.22849671E+00]),
                NASA([1000.00, 3000.00],
                     [ 3.56371036E+00, -5.77881574E-04,  8.78373755E-07,
                      -3.16440322E-10,  3.73828741E-14, -1.00066533E+03,
                      -4.47388186E+00])))

species(name='HO2',
        atoms='H:1 O:2',
        thermo=(NASA([200.00, 1000.00],
                     [ 4.36319264E+00, -5.22691853E-03,  2.19725435E-05,
                      -2.47895468E-08,  9.37996312E-12,  1.29993795E+02,
                       3.43915453E+00]),
                NASA([1000.00, 3000.00],
                     [ 3.43042129E+00,  3.52053666E-03, -1.56404475E-06,
                       3.42186801E-10, -2.98660600E-14,  1.33599409E+02,
                       6.87856246E+00])))

species(name='H2O',
        atoms='H:2 O:1',
        thermo=(NASA([200.00, 1000.00],
                     [ 4.20811417E+00, -2.19131857E-03,  6.85921837E-06,
                      -5.78679790E-09,  1.84663888E-12, -3.02909026E+04,
                      -8.98516636E-01]),
                NASA([1000.00, 3000.00],
                     [ 3.00498800E+00,  2.27083401E-03, -2.60647918E-07,
                      -1.01066290E-10,  2.17471440E-14, -3.00020185E+04,
                       5.07114414E+00])))

species(name='CH3',
        atoms='C:1 H:3',
        thermo=(NASA([200.00, 1000.00],
                     [ 3.71201465E+00,  2.89940222E-03,  2.54406650E-06,
                      -3.09513488E-09,  1.04421741E-12,  1.61856099E+04,
                       1.30088859E+00]),
                NASA([1000.00, 3000.00],
                     [ 2.36797122E+00,  7.12893288E-03, -2.92839013E-06,
                       5.81439625E-10, -4.53876947E-14,  1.65378176E+04,
                       8.13878576E+00])))

species(name='C2H5',
        atoms='C:2 H:5',
        thermo=(NASA([200.00, 1000.00],
                     [ 4.41911769E+00, -4.03273354E-03,  4.86715157E-05,
                      -5.86484290E-08,  2.25698491E-11,  1.27936810E+04,
                       4.10438907E+00]),
                NASA([1000.00, 3000.00],
                     [ 1.62245631E+00,  1.82727039E-02, -8.77547311E-06,
                       2.04825982E-09, -1.88627005E-13,  1.29641429E+04,
                       1.52984878E+01])))

species(name='C2H4O2',
        atoms='C:2 H:4 O:2',
        thermo=(NASA([200.00, 1000.00],
                     [ 4.05066768E+00,  9.28065110E-03,  4.02731678E-05,
                      -6.43251401E-08,  2.75954780E-11, -6.08574403E+03,
                       8.77622770E+00]),
                NASA([1000.00, 3000.00],
                     [ 7.08010020E+00,  1.62946490E-02, -8.37067038E-06,
                       2.07132256E-09, -2.00576990E-13, -7.44746748E+03,
                      -1.00255701E+01])))

species(name='C3H6O2',
        atoms='C:3 H:6 O:2',
        thermo=(NASA([200.00, 1000.00],
                     [ 7.30093116E+00,  3.23383490E-03,  6.32312293E-05,
                      -8.60121138E-08,  3.47360077E-11, -1.02982387E+04,
                      -3.75276576E+00]),
                NASA([1000.00, 3000.00],
                     [ 7.04376437E+00,  2.53059159E-02, -1.26170481E-05,
                       3.04628423E-09, -2.89027183E-13, -1.10539458E+04,
                      -7.05413683E+00])))

species(name='C4H8',
        atoms='C:4 H:8',
        thermo=(NASA([200.00, 1000.00],
                     [ 4.41180194E+00,  1.08126138E-02,  5.24777862E-05,
                      -7.37469525E-08,  2.95952314E-11, -2.34228194E+03,
                       6.87513862E+00]),
                NASA([1000.00, 3000.00],
                     [ 3.01915497E+00,  3.35068758E-02, -1.65725445E-05,
                       3.97120594E-09, -3.74211364E-13, -2.71564011E+03,
                       9.91241434E+00])))

species(name='C4H8O(5)',
        atoms='C:4 H:8 O:1',
        thermo=(NASA([200.00, 1000.00],
                     [ 4.17980771E+00,  1.22057389E-03,  1.06315104E-04,
                      -1.42980959E-07,  5.78070685E-11, -1.75989919E+04,
                       9.79125065E+00]),
                NASA([1000.00, 3000.00],
                     [ 3.58632297E+00,  3.79807077E-02, -1.93006001E-05,
                       4.72890036E-09, -4.53735220E-13, -1.87889766E+04,
                       5.26719760E+00])))

species(name='C4H8O(3)',
        atoms='C:4 H:8 O:1',
        thermo=(NASA([200.00, 1000.00],
                     [ 4.38951478E+00,  1.40287027E-02,  5.73589763E-05,
                      -8.35573152E-08,  3.39612605E-11, -1.91181085E+04,
                       6.73240733E+00]),
                NASA([1000.00, 3000.00],
                     [ 4.07511613E+00,  3.63850059E-02, -1.83036300E-05,
                       4.44882051E-09, -4.24173403E-13, -1.98854398E+04,
                       3.64017615E+00])))

species(name='C4H8O(4)',
        atoms='C:4 H:8 O:1',
        thermo=(NASA([200.00, 1000.00],
                     [ 4.57621551E+00, -1.13200680E-02,  1.43113151E-04,
                      -1.81764757E-07,  7.20058868E-11, -2.43750781E+04,
                       8.01072355E+00]),
                NASA([1000.00, 3000.00],
                     [ 2.09870803E+00,  4.07558381E-02, -2.09056928E-05,
                       5.15938331E-09, -4.97808050E-13, -2.54928717E+04,
                       1.08761319E+01])))

species(name='C4H9(2)',
        atoms='C:4 H:9',
        thermo=(NASA([200.00, 1000.00],
                     [ 5.20170476E+00,  7.24466591E-03,  7.12891705E-05,
                      -9.43427945E-08,  3.68123937E-11,  7.03128697E+03,
                       4.38557669E+00]),
                NASA([1000.00, 3000.00],
                     [ 2.88177923E+00,  3.91089250E-02, -2.03648015E-05,
                       5.07131859E-09, -4.92080971E-13,  6.57777361E+03,
                       1.05618624E+01])))

species(name='C4H9',
        atoms='C:4 H:9',
        thermo=(NASA([200.00, 1000.00],
                     [ 8.35107073E+00, -1.60046494E-02,  1.23930201E-04,
                      -1.47969946E-07,  5.69213608E-11,  5.31573061E+03,
                      -6.83413750E+00]),
                NASA([1000.00, 3000.00],
                     [ 2.68422863E+00,  3.68424196E-02, -1.82677668E-05,
                       4.38217744E-09, -4.13021877E-13,  5.33720644E+03,
                       1.41124903E+01])))

species(name='C4H8O',
        atoms='C:4 H:8 O:1',
        thermo=(NASA([200.00, 1000.00],
                     [ 4.42433399E+00,  8.75376826E-03,  7.90555784E-05,
                      -1.11798288E-07,  4.58503697E-11, -1.65493916E+04,
                       8.97596027E+00]),
                NASA([1000.00, 3000.00],
                     [ 4.49239639E+00,  3.58403547E-02, -1.79994952E-05,
                       4.36849601E-09, -4.15989779E-13, -1.75974802E+04,
                       2.79108072E+00])))

species(name='C4H8O2(9)',
        atoms='C:4 H:8 O:2',
        thermo=(NASA([200.00, 1000.00],
                     [ 2.09215017E+00,  5.42525948E-02, -1.89879089E-05,
                      -2.64787842E-08,  1.87699977E-11, -1.40428515E+04,
                       1.68046280E+01]),
                NASA([1000.00, 3000.00],
                     [ 1.28419062E+01,  2.69848685E-02, -1.29167619E-05,
                       3.01663979E-09, -2.78603034E-13, -1.67465959E+04,
                      -3.82895613E+01])))

species(name='C4H8O2(6)',
        atoms='C:4 H:8 O:2',
        thermo=(NASA([200.00, 1000.00],
                     [ 5.01683485E+00,  2.01546478E-02,  7.09093061E-05,
                      -1.21012033E-07,  5.39403799E-11, -1.53185302E+04,
                       7.97163849E+00]),
                NASA([1000.00, 3000.00],
                     [ 1.12210001E+01,  2.84084213E-02, -1.34381878E-05,
                       3.10100047E-09, -2.83097982E-13, -1.77173136E+04,
                      -2.87803846E+01])))

species(name='C4H8O2(2)',
        atoms='C:4 H:8 O:2',
        thermo=(NASA([200.00, 1000.00],
                     [ 6.97515043E+00,  2.02076279E-02,  3.44918996E-05,
                      -5.68193940E-08,  2.35113515E-11, -1.54147874E+04,
                      -1.88009998E+00]),
                NASA([1000.00, 3000.00],
                     [ 7.20624719E+00,  3.46291665E-02, -1.72252605E-05,
                       4.14932050E-09, -3.92838346E-13, -1.60789407E+04,
                      -6.38627577E+00])))

species(name='C4H10',
        atoms='C:4 H:10',
        thermo=(NASA([200.00, 1000.00],
                     [ 6.47587409E+00, -1.13800914E-03,  9.66823895E-05,
                      -1.23130767E-07,  4.83630113E-11, -1.79636244E+04,
                      -2.45339573E+00]),
                NASA([1000.00, 3000.00],
                     [ 2.74892654E+00,  3.99815270E-02, -1.97623006E-05,
                       4.72925758E-09, -4.44911807E-13, -1.81849698E+04,
                       9.97622735E+00])))

species(name='C4H9O2(4)',
        atoms='C:4 H:9 O:2',
        thermo=(NASA([200.00, 1000.00],
                     [ 7.26491936E+00,  8.01544742E-03,  8.49170115E-05,
                      -1.17102830E-07,  4.73406806E-11, -1.09360891E+04,
                       5.11969444E-01]),
                NASA([1000.00, 3000.00],
                     [ 6.45169224E+00,  3.95253672E-02, -1.99302791E-05,
                       4.85147283E-09, -4.63023901E-13, -1.18565598E+04,
                      -1.65723907E+00])))

species(name='C4H9O2(6)',
        atoms='C:4 H:9 O:2',
        thermo=(NASA([200.00, 1000.00],
                     [ 5.30836642E+00,  4.84782720E-02, -2.70353067E-05,
                       3.52863058E-10,  4.02539768E-12, -4.62712234E+03,
                       3.78878735E+00]),
                NASA([1000.00, 3000.00],
                     [ 1.07258097E+01,  3.32966777E-02, -1.64679013E-05,
                       3.94718805E-09, -3.72181625E-13, -5.99530228E+03,
                      -2.38344067E+01])))

species(name='C4H9O2(8)',
        atoms='C:4 H:9 O:2',
        thermo=(NASA([200.00, 1000.00],
                     [ 8.43157906E+00,  1.64385423E-02,  5.88223513E-05,
                      -9.11836113E-08,  3.84705583E-11, -4.70181895E+03,
                      -6.23157915E+00]),
                NASA([1000.00, 3000.00],
                     [ 9.44117538E+00,  3.52508838E-02, -1.75164464E-05,
                       4.19892067E-09, -3.95113801E-13, -5.74381871E+03,
                      -1.59263255E+01])))

species(name='C4H9O2(2)',
        atoms='C:4 H:9 O:2',
        thermo=(NASA([200.00, 1000.00],
                     [ 5.16255866E+00,  4.13897865E-02, -2.36525847E-06,
                      -2.92463047E-08,  1.59475866E-11, -5.23517271E+03,
                       6.60265772E+00]),
                NASA([1000.00, 3000.00],
                     [ 1.02823546E+01,  3.35430429E-02, -1.65102061E-05,
                       3.94418431E-09, -3.71007079E-13, -6.75051780E+03,
                      -2.08282702E+01])))

species(name='C4H9O2(9)',
        atoms='C:4 H:9 O:2',
        thermo=(NASA([200.00, 1000.00],
                     [ 5.97662631E+00,  3.45002432E-02,  1.14109276E-05,
                      -4.02393518E-08,  1.90803636E-11, -6.24228389E+03,
                       3.63993170E+00]),
                NASA([1000.00, 3000.00],
                     [ 9.48262078E+00,  3.46897206E-02, -1.71773302E-05,
                       4.12308716E-09, -3.89289355E-13, -7.51027692E+03,
                      -1.63940350E+01])))

species(name='C4H9O2',
        atoms='C:4 H:9 O:2',
        thermo=(NASA([200.00, 1000.00],
                     [ 7.36519453E+00,  1.27740384E-02,  7.16063586E-05,
                      -1.03731042E-07,  4.26248312E-11, -1.33971554E+04,
                      -2.06226431E+00]),
                NASA([1000.00, 3000.00],
                     [ 7.51303761E+00,  3.79785005E-02, -1.90195209E-05,
                       4.60502480E-09, -4.37661533E-13, -1.44101212E+04,
                      -8.32144962E+00])))

species(name='C4H9O2(3)',
        atoms='C:4 H:9 O:2',
        thermo=(NASA([200.00, 1000.00],
                     [ 7.43718843E+00,  1.78293287E-02,  5.41607739E-05,
                      -8.41243279E-08,  3.51515273E-11, -4.14272845E+03,
                       4.32547949E-01]),
                NASA([1000.00, 3000.00],
                     [ 8.22769832E+00,  3.64052947E-02, -1.81363972E-05,
                       4.37193112E-09, -4.14036547E-13, -5.13311631E+03,
                      -8.06284347E+00])))

species(name='C4H9O2(7)',
        atoms='C:4 H:9 O:2',
        thermo=(NASA([200.00, 1000.00],
                     [ 6.89127081E+00,  2.84703261E-02,  2.82496469E-05,
                      -5.93984625E-08,  2.67295940E-11, -3.12642516E+03,
                       1.66207072E-01]),
                NASA([1000.00, 3000.00],
                     [ 9.48187152E+00,  3.51450326E-02, -1.74935787E-05,
                       4.20624653E-09, -3.97196632E-13, -4.28245639E+03,
                      -1.59519945E+01])))

species(name='C4H8(3)',
        atoms='C:4 H:8',
        thermo=(NASA([300.00, 1384.00],
                     [ 6.69213599E-01,  3.76839941E-02, -1.85689683E-05,
                       3.69571062E-09, -1.03095209E-13, -3.11675402E+03,
                       2.14868169E+01]),
                NASA([1384.00, 5000.00],
                     [ 1.07864376E+01,  1.84629194E-02, -6.28289490E-06,
                       9.72052191E-10, -5.62579166E-14, -7.11649782E+03,
                      -3.44892763E+01])),
        note='THERM')

species(name='C4H8O(109)',
        atoms='C:4 H:8 O:1',
        thermo=(NASA([200.00, 1000.00],
                     [ 5.90160918E+00,  3.51474792E-03,  7.84597441E-05,
                      -1.02821843E-07,  4.05819707E-11, -3.09510898E+04,
                       4.05566966E+00]),
                NASA([1000.00, 3000.00],
                     [ 3.56215193E+00,  3.62688978E-02, -1.81805817E-05,
                       4.40449498E-09, -4.18734040E-13, -3.13817091E+04,
                       1.02901444E+01])))

species(name='C4H8O(110)',
        atoms='C:4 H:8 O:1',
        thermo=(NASA([200.00, 1000.00],
                     [ 6.25658898E+00,  9.22552340E-03,  5.80092314E-05,
                      -7.84851251E-08,  3.08837050E-11, -2.76065721E+04,
                       1.13234445E+00]),
                NASA([1000.00, 3000.00],
                     [ 4.17366265E+00,  3.57479149E-02, -1.79842158E-05,
                       4.36875554E-09, -4.16193654E-13, -2.79071829E+04,
                       7.20203636E+00])))

species(name='HE',
        atoms='He:1',
        thermo=(NASA([300.00, 1000.00],
                     [ 2.50000000E+00,  0.00000000E+00,  0.00000000E+00,
                       0.00000000E+00,  0.00000000E+00, -7.45375000E+02,
                       9.15348800E-01]),
                NASA([1000.00, 5000.00],
                     [ 2.50000000E+00,  0.00000000E+00,  0.00000000E+00,
                       0.00000000E+00,  0.00000000E+00, -7.45375000E+02,
                       9.15348900E-01])),
        note='120186')

species(name='N2',
        atoms='N:2',
        thermo=(NASA([300.00, 1000.00],
                     [ 3.29867700E+00,  1.40824000E-03, -3.96322200E-06,
                       5.64151500E-09, -2.44485500E-12, -1.02090000E+03,
                       3.95037200E+00]),
                NASA([1000.00, 5000.00],
                     [ 2.92664000E+00,  1.48797700E-03, -5.68476100E-07,
                       1.00970400E-10, -6.75335100E-15, -9.22797700E+02,
                       5.98052800E+00])),
        note='121286')

species(name='AR',
        atoms='Ar:1',
        thermo=(NASA([300.00, 1000.00],
                     [ 2.50000000E+00,  0.00000000E+00,  0.00000000E+00,
                       0.00000000E+00,  0.00000000E+00, -7.45375000E+02,
                       4.36600100E+00]),
                NASA([1000.00, 5000.00],
                     [ 2.50000000E+00,  0.00000000E+00,  0.00000000E+00,
                       0.00000000E+00,  0.00000000E+00, -7.45375000E+02,
                       4.36600100E+00])),
        note='120186')

species(name='H2O2',
        atoms='H:2 O:2',
        thermo=(NASA([200.00, 1000.00],
                     [ 4.43638936E+00, -2.04132576E-03,  2.04166953E-05,
                      -2.54571324E-08,  1.00566609E-11, -1.76567547E+04,
                       2.80560783E+00]),
                NASA([1000.00, 3000.00],
                     [ 4.11100365E+00,  4.96174852E-03, -2.04023023E-06,
                       4.11958126E-10, -3.31925941E-14, -1.77965662E+04,
                       3.17811437E+00])))

species(name='CO',
        atoms='C:1 O:1',
        thermo=(NASA([300.00, 1429.00],
                     [ 3.19036352E+00,  8.94419972E-04, -3.24927563E-08,
                      -1.04599967E-10,  2.41965693E-14, -1.42869054E+04,
                       5.33277914E+00]),
                NASA([1429.00, 5000.00],
                     [ 3.11216890E+00,  1.15948283E-03, -3.38480362E-07,
                       4.41403098E-11, -2.12862228E-15, -1.42718539E+04,
                       5.71725177E+00])))

species(name='CO2',
        atoms='C:1 O:2',
        thermo=(NASA([300.00, 1380.00],
                     [ 2.57930490E+00,  8.24684987E-03, -6.42716047E-06,
                       2.54637024E-09, -4.12030443E-13, -4.84162830E+04,
                       8.81141041E+00]),
                NASA([1380.00, 5000.00],
                     [ 5.18953018E+00,  2.06006476E-03, -7.33575324E-07,
                       1.17004374E-10, -6.91729215E-15, -4.93178953E+04,
                      -5.18289303E+00])))

species(name='CH2O',
        atoms='C:1 H:2 O:1',
        thermo=(NASA([300.00, 1486.00],
                     [ 3.00754197E+00,  3.04729496E-03,  5.25109246E-06,
                      -5.12019281E-09,  1.27133795E-12, -1.41188397E+04,
                       8.10120233E+00]),
                NASA([1486.00, 5000.00],
                     [ 4.02068394E+00,  5.09903417E-03, -1.76430480E-06,
                       2.76025879E-10, -1.60998042E-14, -1.49287258E+04,
                       1.06525547E+00])),
        note='RUSCI')

species(name='HCO',
        atoms='C:1 H:1 O:1',
        thermo=(NASA([300.00, 1690.00],
                     [ 3.81049965E+00,  8.13269825E-04,  3.13164701E-06,
                      -2.39478268E-09,  5.06894554E-13,  4.03859901E+03,
                       4.94843165E+00]),
                NASA([1690.00, 5000.00],
                     [ 3.44148164E+00,  3.52157719E-03, -1.24136118E-06,
                       1.97328644E-10, -1.16538616E-14,  3.97409684E+03,
                       6.24593456E+00])))

species(name='HO2CHO',
        atoms='C:1 H:2 O:3',
        thermo=(NASA([300.00, 1378.00],
                     [ 2.42464726E+00,  2.19706380E-02, -1.68705546E-05,
                       6.25612194E-09, -9.11645843E-13, -3.54828006E+04,
                       1.75027796E+01]),
                NASA([1378.00, 5000.00],
                     [ 9.87503878E+00,  4.64663708E-03, -1.67230522E-06,
                       2.68624413E-10, -1.59595232E-14, -3.80502496E+04,
                      -2.24939155E+01])),
        note='THERM')

species(name='O2CHO',
        atoms='C:1 H:1 O:3',
        thermo=(NASA([300.00, 1368.00],
                     [ 3.96059309E+00,  1.06002279E-02, -5.25713351E-06,
                       1.01716726E-09, -2.87487602E-14, -1.73599383E+04,
                       1.17807483E+01]),
                NASA([1368.00, 5000.00],
                     [ 7.24075139E+00,  4.63312951E-03, -1.63693995E-06,
                       2.59706693E-10, -1.52964699E-14, -1.87027618E+04,
                      -6.49547212E+00])),
        note='THERM')

species(name='HOCHO',
        atoms='C:1 H:2 O:2',
        thermo=(NASA([300.00, 1419.00],
                     [ 1.28069021E+00,  1.52887758E-02, -5.64150476E-06,
                      -1.22968799E-09,  8.14273233E-13, -4.64347524E+04,
                       1.83142081E+01]),
                NASA([1419.00, 5000.00],
                     [ 7.67134440E+00,  4.43426373E-03, -1.60867436E-06,
                       2.59770020E-10, -1.54899704E-14, -4.89708660E+04,
                      -1.73024418E+01])),
        note='THERM')

species(name='OCHO',
        atoms='C:1 H:1 O:2',
        thermo=(NASA([300.00, 1412.00],
                     [ 1.42991854E+00,  1.22803284E-02, -5.28461096E-06,
                      -3.73026551E-10,  5.07953571E-13, -1.62042814E+04,
                       1.80411779E+01]),
                NASA([1412.00, 5000.00],
                     [ 6.49815560E+00,  3.22319012E-03, -1.17099595E-06,
                       1.89272918E-10, -1.12937000E-14, -1.81679042E+04,
                      -1.00412613E+01])),
        note='THERM')

species(name='HOCH2O2H',
        atoms='C:1 H:4 O:3',
        thermo=(NASA([300.00, 1422.00],
                     [ 1.85716693E+00,  3.23153132E-02, -2.69928902E-05,
                       1.11694484E-08, -1.81284103E-12, -4.00314471E+04,
                       1.90917729E+01]),
                NASA([1422.00, 5000.00],
                     [ 1.16303827E+01,  7.15133688E-03, -2.39035030E-06,
                       3.65772791E-10, -2.10199524E-14, -4.31079242E+04,
                      -3.24276725E+01])),
        note='THERM')

species(name='HOCH2O2',
        atoms='C:1 H:3 O:3',
        thermo=(NASA([300.00, 1412.00],
                     [ 2.85441621E+00,  2.33663535E-02, -1.88115990E-05,
                       7.96709515E-09, -1.36346618E-12, -2.29866196E+04,
                       1.51730565E+01]),
                NASA([1412.00, 5000.00],
                     [ 9.04545938E+00,  7.15223373E-03, -2.37005676E-06,
                       3.60083481E-10, -2.05750228E-14, -2.49414886E+04,
                      -1.74210530E+01])),
        note='THERM')

species(name='OCH2O2H',
        atoms='C:1 H:3 O:3',
        thermo=(NASA([300.00, 1420.00],
                     [ 1.93823075E+00,  3.01465730E-02, -2.61053152E-05,
                       1.09463562E-08, -1.78312692E-12, -1.38166625E+04,
                       1.85042002E+01]),
                NASA([1420.00, 5000.00],
                     [ 1.15398246E+01,  5.34291432E-03, -1.81878917E-06,
                       2.81968625E-10, -1.63584348E-14, -1.68237489E+04,
                      -3.20700633E+01])),
        note='THERM')

species(name='HOCH2O',
        atoms='C:1 H:3 O:2',
        thermo=(NASA([300.00, 1452.00],
                     [ 4.11183145E+00,  7.53850697E-03,  3.77337370E-06,
                      -5.38746005E-09,  1.45615887E-12, -2.28023001E+04,
                       7.46807254E+00]),
                NASA([1452.00, 5000.00],
                     [ 6.39521515E+00,  7.43673043E-03, -2.50422354E-06,