"""
 Modified to include N2O+O reactions from Pham (2022)

 This is part of the Supplemental Material for the paper:
 "A Shock-Tube Study of the Rate Constant of N2O + M = N2 + O + M (M = Ar) Using N2O Laser Absorption Near 4.6 microns"
 C.R. Mulvihill, S.A. Alturaifi, E.L. Petersen
 Combustion and Flame

 This is part of the Supplemental Material for the paper:
 "A Shock-Tube Study of the Rate Constant of N2O + M = N2 + O + M (M = Ar) Using N2O Laser Absorption Near 4.6 microns"
 C.R. Mulvihill, S.A. Alturaifi, E.L. Petersen
 Combustion and Flame

 All values taken from the Burcat database, specifically the version adapted
 to CHEMKIN (http://garfield.chem.elte.hu/Burcat/THERM.DAT). Accessed on
 April 16, 2020.

"""

units(length='cm', time='s', quantity='mol', act_energy='cal/mol')

ideal_gas(name='gas',
          elements="Ar N O",
          species="""AR     N      N2     NO     NO2    NO3    N2O    N2O3
                     N2O4   O      O(S)   O2     O2(S)""",
          reactions='all',
          initial_state=state(temperature=300.0, pressure=OneAtm))

#-------------------------------------------------------------------------------
# Species data
#-------------------------------------------------------------------------------

species(name='AR',
        atoms='Ar:1',
        thermo=(NASA([200.00, 1000.00],
                     [ 2.50000000E+00,  0.00000000E+00,  0.00000000E+00,
                       0.00000000E+00,  0.00000000E+00, -7.45375000E+02,
                       4.37967491E+00]),
                NASA([1000.00, 6000.00],
                     [ 2.50000000E+00,  0.00000000E+00,  0.00000000E+00,
                       0.00000000E+00,  0.00000000E+00, -7.45375000E+02,
                       4.37967491E+00])),
        note='g5/97')

species(name='N',
        atoms='N:1',
        thermo=(NASA([200.00, 1000.00],
                     [ 2.50000000E+00,  0.00000000E+00,  0.00000000E+00,
                       0.00000000E+00,  0.00000000E+00,  5.61046380E+04,
                       4.19390880E+00]),
                NASA([1000.00, 6000.00],
                     [ 2.41594290E+00,  1.74890650E-04, -1.19023690E-07,
                       3.02262440E-11, -2.03609830E-15,  5.61337750E+04,
                       4.64960950E+00])),
        note='L6/88')

species(name='N2',
        atoms='N:2',
        thermo=(NASA([200.00, 1000.00],
                     [ 3.53100528E+00, -1.23660988E-04, -5.02999433E-07,
                       2.43530612E-09, -1.40881235E-12, -1.04697628E+03,
                       2.96747038E+00]),
                NASA([1000.00, 6000.00],
                     [ 2.95257637E+00,  1.39690040E-03, -4.92631603E-07,
                       7.86010195E-11, -4.60755204E-15, -9.23948688E+02,
                       5.87188762E+00])),
        note='G8/02')

species(name='NO',
        atoms='N:1 O:1',
        thermo=(NASA([200.00, 1000.00],
                     [ 4.21859896E+00, -4.63988124E-03,  1.10443049E-05,
                      -9.34055507E-09,  2.80554874E-12,  9.84509964E+03,
                       2.28061001E+00]),
                NASA([1000.00, 6000.00],
                     [ 3.26071234E+00,  1.19101135E-03, -4.29122646E-07,
                       6.94481463E-11, -4.03295681E-15,  9.92143132E+03,
                       6.36900518E+00])),
        note='RUS89')

species(name='NO2',
        atoms='N:1 O:2',
        thermo=(NASA([200.00, 1000.00],
                     [ 3.94403120E+00, -1.58542900E-03,  1.66578120E-05,
                      -2.04754260E-08,  7.83505640E-12,  2.89661800E+03,
                       6.31199190E+00]),
                NASA([1000.00, 6000.00],
                     [ 4.88475400E+00,  2.17239550E-03, -8.28069090E-07,
                       1.57475100E-10, -1.05108950E-14,  2.31649820E+03,
                      -1.17416950E-01])),
        note='L7/88')

species(name='NO3',
        atoms='N:1 O:3',
        thermo=(NASA([200.00, 1000.00],
                     [ 2.17359330E+00,  1.04902685E-02,  1.10472669E-05,
                      -2.81561867E-08,  1.36583960E-11,  7.81290905E+03,
                       1.46022090E+01]),
                NASA([1000.00, 6000.00],
                     [ 7.48347702E+00,  2.57772064E-03, -1.00945831E-06,
                       1.72314063E-10, -1.07154008E-14,  6.12990474E+03,
                      -1.41618136E+01])),
        note='ATcT/A')

species(name='N2O',
        atoms='N:2 O:1',
        thermo=(NASA([200.00, 1000.00],
                     [ 2.25715020E+00,  1.13047280E-02, -1.36713190E-05,
                       9.68198030E-09, -2.93071820E-12,  8.74177460E+03,
                       1.07579920E+01]),
                NASA([1000.00, 6000.00],
                     [ 4.82307290E+00,  2.62702510E-03, -9.58508720E-07,
                       1.60007120E-10, -9.77523020E-15,  8.07340470E+03,
                      -2.20172080E+00])),
        note='L7/88')

species(name='N2O3',
        atoms='N:2 O:3',
        thermo=(NASA([200.00, 1000.00],
                     [ 5.81083964E+00,  1.43330962E-02, -1.96208597E-05,
                       1.73060735E-08, -6.46553954E-12,  8.19184453E+03,
                       1.20461321E+00]),
                NASA([1000.00, 6000.00],
                     [ 9.08583845E+00,  3.37756330E-03, -1.31583890E-06,
                       2.30762329E-10, -1.47151267E-14,  7.27160146E+03,
                      -1.55361904E+01])),
        note='(O=NNO2)L4/90')

species(name='N2O4',
        atoms='N:2 O:4',
        thermo=(NASA([200.00, 1000.00],
                     [ 3.02002271E+00,  2.95904359E-02, -3.01342572E-05,
                       1.42360526E-08, -2.44100411E-12, -6.79238803E+02,
                       1.18059620E+01]),
                NASA([1000.00, 6000.00],
                     [ 1.15752932E+01,  4.01615532E-03, -1.57178022E-06,
                       2.68273657E-10, -1.66921538E-14, -2.96111235E+03,
                      -3.19488625E+01])),
        note='(O2NNO2)ATcTA')

species(name='O',
        atoms='O:1',
        thermo=(NASA([200.00, 1000.00],
                     [ 3.16826710E+00, -3.27931884E-03,  6.64306396E-06,
                      -6.12806624E-09,  2.11265971E-12,  2.91222592E+04,
                       2.05193346E+00]),
                NASA([1000.00, 6000.00],
                     [ 2.54363697E+00, -2.73162486E-05, -4.19029520E-09,
                       4.95481845E-12, -4.79553694E-16,  2.92260120E+04,
                       4.92229457E+00])),
        note='L1/90')

species(name='O(S)',
        atoms='O:1',
        thermo=(NASA([200.00, 1000.00],
                     [ 2.49993786E+00,  1.71935346E-07, -3.45215267E-10,
                       3.71342028E-13, -1.70964494E-16,  5.19965317E+04,
                       4.61684555E+00]),
                NASA([1000.00, 6000.00],
                     [ 2.49368475E+00,  1.37617903E-05, -1.00401058E-08,
                       2.76012182E-12, -2.01597513E-16,  5.19986304E+04,
                       4.65050950E+00])))

species(name='O2',
        atoms='O:2',
        thermo=(NASA([200.00, 1000.00],
                     [ 3.78245636E+00, -2.99673416E-03,  9.84730201E-06,
                      -9.68129509E-09,  3.24372837E-12, -1.06394356E+03,
                       3.65767573E+00]),
                NASA([1000.00, 6000.00],
                     [ 3.66096065E+00,  6.56365811E-04, -1.41149627E-07,
                       2.05797935E-11, -1.29913436E-15, -1.21597718E+03,
                       3.41536279E+00])),
        note='RUS89')

species(name='O2(S)',
        atoms='O:2',
        thermo=(NASA([200.00, 1000.00],
                     [ 3.78535371E+00, -3.21928540E-03,  1.12323443E-05,
                      -1.17254068E-08,  4.17659585E-12,  1.02922572E+04,
                       3.27320239E+00]),
                NASA([1000.00, 6000.00],
                     [ 3.45852381E+00,  1.04045351E-03, -2.79664041E-07,
                       3.11439672E-11, -8.55656058E-16,  1.02229063E+04,
                       4.15264119E+00])))

#-------------------------------------------------------------------------------
# Reaction data
#-------------------------------------------------------------------------------

# Reaction 1
falloff_reaction('N2O (+ M) <=> N2 + O (+ M)',
                 kf=[1.260000e+12, 0.0, 62620.0],
                 kf0=[1.040000e+15, 0.0, 59810.0])
#  Rohrig et al., Int. J. Chem. Kin. 28 (1996) 599-608
#  This study

# Reaction 2
#reaction('N2O + O <=> N2 + O2', [3.690000e+12, 0.0, 15937.0])
#  removing according to Pham!

# Reaction 3
reaction('N2O + O <=> NO + NO', [9.150000e+13, 0.0, 27682.0])
#  Meagher and Anderson, J. Phys. Chem. A 104 (2000) 6013-6031

# Reaction 4
reaction('N2O + N <=> N2 + NO', [1.000000e+13, 0.0, 19872.0])
#  Meagher and Anderson, J. Phys. Chem. A 104 (2000) 6013-6031

# Reaction 5
reaction('N2O + NO <=> NO2 + N2', [5.260000e+05, 2.23, 46286.0])
#  Mebel et al., Int. J. Chem. Kin. 28 (1996) 693-703

# Reaction 6
three_body_reaction('NO + M <=> N + O + M', [9.640000e+14, 0.0, 148444.0])
#  Tsang and Herron, J. Phys. Chem. Ref. Data 20 (1991) 609-663

# Reaction 7
reaction('NO + N <=> N2 + O', [9.400000e+12, 0.14, 0.0])
#  Abian et al., Int. J. Chem. Kin. 47 (2015) 518-532

# Reaction 8
reaction('NO + NO + NO <=> N2O + NO2', [1.070000e+10, 0.0, 26807.0])
#  Meagher and Anderson, J. Phys. Chem. A 104 (2000) 6013-6031

# Reaction 9
falloff_reaction('NO2 (+ M) <=> NO + O (+ M)',
                 kf=[7.600000e+18, -1.27, 73294.0],
                 kf0=[2.470000e+28, -3.37, 74806.0],
                 efficiencies='AR:0.6 N2O:4.4 NO:1.8 NO2:6.2 O2:0.8',
                 falloff=Troe(A=0.96, T3=1e-30, T1=8000.0))
#  Tsang and Herron, J. Phys. Chem. Ref. Data 20 (1991) 609-663
#  Tsang and Herron, J. Phys. Chem. Ref. Data 20 (1991) 609-663
#  Tsang and Herron, J. Phys. Chem. Ref. Data 20 (1991) 609-663
#  Zhang et al., Comb. Flame 182 (2017) 122-141

# Reaction 10
reaction('NO2 + NO2 <=> NO3 + NO', [9.640000e+09, 0.73, 20925.0])
#  Tsang and Herron, J. Phys. Chem. Ref. Data 20 (1991) 609-663

# Reaction 11
reaction('NO2 + NO2 <=> NO + NO + O2', [4.510000e+12, 0.0, 27600.0])
#  Park et al., J. Phys. Chem. A 102 (1998) 10099-10105

# Reaction 12
reaction('NO2 + NO <=> N2O + O2', [1.000000e+12, 0.0, 60014.0])
#  Meagher and Anderson, J. Phys. Chem. A 104 (2000) 6013-6031

# Reaction 13
reaction('NO2 + N <=> N2O + O', [5.010000e+12, 0.0, 0.0])
#  Meagher and Anderson, J. Phys. Chem. A 104 (2000) 6013-6031

# Reaction 14
reaction('NO2 + N <=> N2 + O2', [1.000000e+12, 0.0, 0.0])
#  Meagher and Anderson, J. Phys. Chem. A 104 (2000) 6013-6031

# Reaction 15
reaction('NO2 + N <=> NO + NO', [3.980000e+12, 0.0, 0.0])
#  Meagher and Anderson, J. Phys. Chem. A 104 (2000) 6013-6031

# Reaction 16
reaction('NO2 + O <=> NO + O2', [3.910000e+12, 0.0, -238.0])
#  Tsang and Herron, J. Phys. Chem. Ref. Data 20 (1991) 609-663

# Reaction 17
falloff_reaction('NO2 + O (+ M) <=> NO3 (+ M)',
                 kf=[3.520000e+12, 0.24, 0.0],
                 kf0=[2.450000e+20, -1.5, 0.0],
                 falloff=Troe(A=0.71, T3=1e-30, T1=1700.0))
#  Hahn et al., Phys. Chem. Chem. Phys. 2 (2000) 5098-5104
#  Hahn et al., Phys. Chem. Chem. Phys. 2 (2000) 5098-5104
#  Hahn et al., Phys. Chem. Chem. Phys. 2 (2000) 5098-5104

# Reaction 18
reaction('NO3 + O <=> NO2 + O2', [1.000000e+13, 0.0, 0.0])
#  Zhang et al., Comb. Flame 182 (2017) 122-141

# Reaction 19
reaction('NO3 + NO3 <=> NO2 + NO2 + O2', [2.600000e+12, 0.0, 7690.0])
#  Meagher and Anderson, J. Phys. Chem. A 104 (2000) 6013-6031

# Reaction 20
reaction('NO3 + NO2 <=> NO + NO2 + O2', [5.000000e+10, 0.0, 2940.0])
#  Zhang et al., Comb. Flame 182 (2017) 122-141

# Reaction 21
falloff_reaction('N2O4 (+ M) <=> NO2 + NO2 (+ M)',
                 kf=[4.050000e+18, -1.1, 12840.0],
                 kf0=[1.960000e+28, -3.8, 12840.0],
                 efficiencies='AR:0.8 N2O4:2.0 NO2:2.0')
#  Zhang et al., Comb. Flame 182 (2017) 122-141
#  Zhang et al., Comb. Flame 182 (2017) 122-141
#  Zhang et al., Comb. Flame 182 (2017) 122-141

# Reaction 22
reaction('N2O4 + O <=> N2O3 + O2', [1.210000e+12, 0.0, 0.0])
#  Zhang et al., Comb. Flame 182 (2017) 122-141

# Reaction 23
reaction('N2O3 + O <=> NO2 + NO2', [2.710000e+11, 0.0, 0.0])
#  Zhang et al., Comb. Flame 182 (2017) 122-141

# Reaction 24
three_body_reaction('N2 + M <=> N + N + M', [3.670000e+21, -1.6, 224951.0])
#  Meagher and Anderson, J. Phys. Chem. A 104 (2000) 6013-6031

# Reaction 25
three_body_reaction('O2 + M <=> O + O + M', [1.810000e+18, -1.0, 118000.0])
#  Tsang and Hampson, J. Phys. Chem. Ref. Data 15 (1986) 1087-1279

# Reaction 26
reaction('O2 + N <=> NO + O', [5.840000e+09, 1.01, 6200.0])
#  Baulch et al., J. Phys. Chem. Ref. Data 34 (2005) 757-1397

#  Pham reactions

# Reaction 27
#reaction('N2O + O <=> N2 + O2(S)', [5.750000e+13, 0.0, 26090.0])
#  Pham et al. 2022

# Reaction 28
reaction('O2(S) + AR <=> O2 + AR', [1.00000e+13, 0.0, 0.0])
#  Assuming a value

# Reaction 29
reaction('N2O + O(S) <=> N2 + O2(S)', [1e+14, 0.0, 0.0])
# coll rate ish

# Reaction 30
reaction('N2O + O(S) <=> NO + NO', [5e+13, 0.0, 0.0])
# coll rate ish / 2

# Reaction 31
bf = 1
falloff_reaction('N2O (+ M) <=> N2 + O(S) (+ M)',
                 kf=[1.260000e+12 * bf, 0.0, 62620.0],
                 kf0=[1.040000e+15 * bf, 0.0, 59810.0])


