"""
 Notes to self (CRM):
 1. Had to add N, He, and N2, HE to the elements/species lists
 2. Had to delete a duplicate reaction CH2COOH=CH2CO+OH (appears in NUIG1.1)

"""

units(length='cm', time='s', quantity='mol', act_energy='cal/mol')

ideal_gas(name='gas',
          elements="Ar O C H N He",
          species="""N2              HE              XC6Q11A-4
                     C6H13-2         IC4H6OH         OHV
                     C3H51-2,3OOH    C3H5-A          IC3H6OHCHO
                     C5H10OH14       CC3H4           C6H111-5
                     C5H10-2         C4H8-2          IC4H7O
                     IC5Y3-1J        HCOH            C5H9OH2-1,3O
                     SC3H4OH         IC4YAA-R        CY(CCOC)OH
                     SC3H5OCH2-1     NC6D1KET43O     C6H112-5
                     IC3H7OH         PC3H4OH-1       PC4H9
                     AR              C6KET34O        C5H9O1-2O-4
                     CH3O2           CYCOOC-CH2      IC4H9
                     CH3OCHO         CH3CHCH2COCH3   CH3COH
                     CH2CH2CHO       C5H92-5         IIC4H7Q2-I
                     QC3H5OHP        CYC3H4C2H5-2    C3H6OH1-3
                     H2O             CCYCCJO         BUTA123TRIENE
                     HO2             C5H92-2O2       C2H2OH
                     AC5H9-A2        C5H10OOH2-3O    C2H5O2
                     IC5H12          OH              IC5T1-4
                     CH2O            IC3H5CO         CH3C(OH)CH
                     CH2CCO          C4H4O           A-BC5H10O-DJ
                     C4H7CO1-4       OVCCCJVO        CH2CO2
                     C4H5-I          IC6D4-3O        CH3CO2
                     CH3COCHOH       IC3H7CO         CH2CH2COC2H5
                     SC4H8CHO-1      IC3H6CO         SC3H5OH
                     XC6D13-1AR      XC6D1-1A        CH3OH
                     NC6H14          CH              PC2H4OH
                     IC5D1T3         C4H7O1-4        CH2CH2CH2COCH3
                     H2O2            IC3H5CHO        SC4H9
                     cCH2COOCH2#     CYC3H3-1C2H5    CYC4H6-3-CH3
                     QCH2CH2CO3H     CH3CHCHO        C2H3COCH3
                     SC4H9O          HOCH2CO         CVCCJCVC
                     CH2COOH         C3KET13         C5H91-4O
                     IC4H7-I1OO      IC4H7O-1        C6KET24O
                     DC5H9O-A        C6H101OOH5-2    CH2
                     C5H92-3         H2CC            DC5H11
                     C4H72-2O2       CCYC2OCO        CH2COHCO
                     CO2             C4H5-2          IC5KETDBO
                     IQJC3H6OH       QCH2CH(OOH)CHO  O2CH2CH2CHO
                     AC5H9-D         IC5D1T3-1J      IC5KETACO
                     C2H5CO2         HOCH2O          C3H5O31
                     IC4H9O          C2H3OOH         C5H91-4
                     C3H6CHO-1       CJVCCVO         CH3COCH2O2
                     H2              IC3H7           IC3H5OH
                     OCH2OCHO        IC3H7O2         CH3COOH
                     CH3COCH3        PC4H9CO         XC6KET1-3O
                     CH3CHCOCH3      CVCCVCCVO       IC6
                     TC3H6OH         AC3H5OOH        C4H71-1O2
                     IC6D2           CY(COC)COH      C2H5CHO
                     C4Y1-3OR        C4H8-1          NC3H7O2
                     NC5CYCPER24     C2H5COCH2       MCP
                     C5H7-13-3       C4H612          HO2CHO
                     CH2CCH2OH       C3H6OOH1-3      CH2CYC3H3CH3
                     C2H5            C4H71-2         DC5H9O-B
                     C3H6OOH1-3O2    HO2CH2CO        CH3CO
                     C2              C4H71-1         SC2H2OH
                     NC5CYCPER31     C6KET14O        C3KET12
                     HOCO            NC3H7CHO        NC3H7
                     C5H9A-A,DOOH    C6H12OOH1-3O    AC3H4COCH3
                     C2H5COOH        NC3H7O2H        C2HCHO
                     NC4H5O2         IC6D1-4         NC6D1KET53O
                     AC5H11          C5H81OOH4-1     O2CCHOOJ
                     IC3H7O          CH3CCO          C5H81OOH5-2
                     IC6KET5-2O      IC4H6OOH-I      CH3O2H
                     C3H2            CJVCCVCCVO      HOCH2O2H
                     C2H3O1-2        C3H4-A          C2H5O2H
                     HOCVCCJVO       HOCHCHO         C3H52-1,3OOH
                     CH2COCH2        NC5H12          CYC5H9
                     IC3H5Q          B13DE2MJ        CH3COHCO
                     C5H10OOH1-2     CH3COCH2        C2H6
                     C4H71-2O2       IC4H8O2H-I      XC6OOH1-4
                     CH2CHCHCHO      IC3H4CHO-A      C6H12-1
                     C5H81KET43O     P13DE1J         IC3H7O2H
                     HOCH2CHO        CH3CO3H         C2H3
                     C4H7O13-4       O2C2H4OH        CH3CH(OO)CHO
                     IC6D4           PC4H8OH-1       C3H6CHO-3
                     C3H5-SOOH       CH3COCOHCH3     C4H6-2
                     C3H6OH1-1       CH2OCH2O2H      IC6OOH1-4
                     NC6D1KET63O     C4H10           CH2COHCH2OOH
                     C3H8            C3H3            C3H6COQ3
                     TQC3H5OHIQ-P    SC3H5OO         XC6Q14-1A
                     C3H6O3          CC4H7O-IJ       CH3OCH2O2H
                     B13DE2M         NC5KET13O       CC5H11
                     IC6KET1-3O      C5H92-3O2       CH2CH2COCH3
                     OCH2O2H         C2H3COOCH2      C(OH)CY(COC)
                     CYC3H5CHCH2     CHCCH2CH2CHCH2  C2H5CO3
                     OCHCH2CH2O      QHO2CH2CH2CO    C3H6OH1-2
                     NC5KET24O       C4H6            C2H3OH
                     CH2OH           IC3H5OOCH2      NC3H7COCH2
                     C               C5H10OH21       TQC3H5OHIQ-I
                     C5H10-1         CH2OCH2CHO      O
                     PC4H8OH-3       C3H4OHOOH1-3-2  CH4
                     NC5KET32O       C5H10OOH2-5     C4H5-N
                     C6H6            C3H5-T          CH2OCHO
                     C5H11-3         CHOIC3H6O       C2H2
                     CH2CHOCO        CH2CHO          CYC3H3-3C2H5
                     C5H91-3         C2H3CO          CH3OCH2O
                     HOCHO           QCH3CH(OOH)CO   C5H91-5
                     CHCHO           CH3OCH2         C3H6
                     C5H92-1,5OOH    C4H5OH-13       BC5H11O
                     C2H5CHCO        CH3CHCO         IC6D1-1A
                     C2H5CO3H        OVCCVCCJVO      C3H6OH2-1
                     C2H4O1-2        NC5KET23O       C6H12OOH1-4O
                     C2H5O           BC5H11          CH3CO3
                     CH2CO           NC3H7O          CC5H9-A
                     NC3H7CO         C4H71-4         TC4H9
                     IC4H7           HCCOH           OVCCCVO
                     HOCH2OCO        IC6KET4-2O      C4H7O12-4
                     CHOCHO          C3H6OOH2-1O2    CH2(OH)OCH2
                     C5H10OOH1-4     CVCC(OJ)CVC     C3H3O
                     C2H5CHOHCO      C3H5O1-2OOH-3   C3H4-P
                     C4H7O23-1       CH2COHCHO       XC6
                     XC6-1           C3H2(S)         SC4H8OH-1
                     IC6Q14-1A       C2H4COCH2OH     NC5H10CHO-1
                     C4H4            C4H6O23         IC3H6CHO
                     C5H11-2         C#CCVCCJ        AC5H9O-C
                     CH2CCHCH2CHCH2  OCHO            O2CH2CHO
                     QCH3CHCO3H      C5H82-3         IC4H8OH-TI
                     TQC3H6OI        TQC3H5OHI       C4H7O2-1
                     C4H71-O         CO              CH2CHCHOH
                     IC6Q45-1        CH3CHO          CYC2H3OCHO
                     C5H9O1-3        AC3H5CHO        IC5KETCBO
                     IQC3H5OHPJC     CJCYCCO         HCO
                     C3H6O1-2        CH3OCH3         CH3COCH2O
                     NC6D1KET34O     IC6-2O          IC6D4-1
                     CH2(S)          OCH2CHO         C4H6-1
                     CH3CCHO         NC5CYCPER13     C2H4OCHO
                     C5H9O2-3O-4     TQJC3H6OH       C5H10OH32
                     CHV             AC4H7OOH        C5H11-1
                     C5H9O12-4       CC5H10          IC4H8
                     IC3H5COCH2      C6H11Q12-5      NC3H7COCH3
                     CC3H6           C6H101-5        C3H4O1-2
                     IC4H10          PC3H4OH-2       NC3H7OH
                     HOCH2COCH2      C3H6OOH1-2      IC6D13-1AR
                     C2H5OH          C5H10OH11       C4H3-I
                     IC6KET3-2O      C4H3-N          IC4H7CHO-A
                     H2CCC(S)        CYC4H6-2-CH3    CH3OCO
                     H               C4H2            QHO2CH2CHCHO
                     CH2O2H          C4H61KET43O     C5H10OH15
                     C5H10OH12       XC6D1-4         C4H8CHO4-2
                     PC4H8CHO-3      C6H12-2         NC5D124-5R
                     BC5H10          C5H81-2         IC6Q15-1A
                     XC6D13          C5H6            CVCCOJCVCC
                     C2H4O2H         IC6OOH4-1       TC3H5OO
                     C3H6O1-3        C2H             C5H81O-3-5OOH
                     C4H5-2C2H       IC6-4           HCCO
                     C3H5-S          C6H11-1D3O      IC6D14-1
                     CVCCJCVCOH      C3H6OOH1-2O2    C5H7-13-2
                     IC4H7-I1        PC4H8OH-4       CH3
                     C3H6CHO-2       IC6-3O          SC2H4OH
                     C3H4CH2OH-3O    CYC3H5CHCH3     AC5H10
                     C2O             CH2CYC3H4CH3    C3H2C
                     C5H9OH1-4,3O    C5H81KET53O     CC5H9O-B
                     CH3CHCOC2H5     H2C4O           IQC3H5OHPJ
                     CH3O            CCY(COC)OH      C3H5OH
                     SC3H5CO         C3H6OOH2-1      IC3H5COCH3
                     C4H71-3         C5H81KET34O     C5H9O1-2O-3
                     C3H5O           SC4H7O-I        C6H12OOH2-3O
                     C3KET21         AC3H5OCH2       CH3OCH2O2
                     FULVENE         C6H10D14        TC4H9O
                     C3H3O2H         HOCVCCVO        PC4H9O
                     C5H8-2          C2H3OO          IC6Q11A-4
                     C2H3CHO         PC4H8CHO-4      C5H91-2
                     C2H5CO          QC3H5OHPO2      O2CHO
                     C4H72-2         XC6D2           NC5H10CHO-4
                     C6H11-1D4O      CH3#CHCOO#      IQC3H6OT
                     C6H13O-3        C5H81-3         CCYCCO-T1
                     C6H5            SC3H5CHO        IC3H7CHO
                     CH2COHCH2O      C6H11-2D4O      CC5H11O
                     XC6-2O          C3H6COQ2        NC5KET14O
                     CH3OCHCH2       C5H82OOH5-2     PC4H8CHO-1
                     C6H10D24        CHOCOHCH3       C5H5
                     CH3COCH         C5H8D14         C5H92-2
                     O2              CH2CHOCHO       C5H91-1
                     IC4H7OH         IQC4H8OT        C6H12OOH2-4O
                     C3H3CH2O        C6H12OOH2-5     CH2CHOCH2
                     IC6-1           C5H9O2-4        TC3H6OCHO
                     C5H8-1          CYC3H4CHCH3     SC4H8OH-3
                     C5H11O-2        IC3H7COCH2      C2H4
                     C5H11O-3        CH3COCHO        C2H3COHOOH""",
          reactions='all',
          initial_state=state(temperature=300.0, pressure=OneAtm))

#-------------------------------------------------------------------------------
# Species data
#-------------------------------------------------------------------------------

species(name='N2',
        atoms='N:2',
        thermo=(NASA([200.00, 1000.00],
                     [ 3.53100528E+00, -1.23660988E-04, -5.02999433E-07,
                       2.43530612E-09, -1.40881235E-12, -1.04697628E+03,
                       2.96747038E+00]),
                NASA([1000.00, 6000.00],
                     [ 2.95257637E+00,  1.39690040E-03, -4.92631603E-07,
                       7.86010195E-11, -4.60755204E-15, -9.23948688E+02,
                       5.87188762E+00])))

species(name='HE',
        atoms='He:1',
        thermo=(NASA([200.00, 1000.00],
                     [ 2.50000000E+00,  0.00000000E+00,  0.00000000E+00,
                       0.00000000E+00,  0.00000000E+00, -7.45375000E+02,
                       9.28723974E-01]),
                NASA([1000.00, 6000.00],
                     [ 2.50000000E+00,  0.00000000E+00,  0.00000000E+00,
                       0.00000000E+00,  0.00000000E+00, -7.45375000E+02,
                       9.28723974E-01])))

species(name='XC6Q11A-4',
        atoms='C:6 H:13 O:4',
        thermo=(NASA([300.00, 1400.00],
                     [-4.77764912E-01,  1.06118190E-01, -9.12790149E-05,
                       4.09797560E-08, -7.40929138E-12, -1.93409391E+04,
                       4.08218165E+01]),
                NASA([1400.00, 5000.00],
                     [ 2.86883137E+01,  2.83595673E-02, -9.70837744E-06,
                       1.50808503E-09, -8.75278228E-14, -2.85469892E+04,
                      -1.12469445E+02])))

species(name='C6H13-2',
        atoms='C:6 H:13',
        thermo=(NASA([300.00, 1396.00],
                     [ 4.54637637E-01,  6.28019923E-02, -3.24349900E-05,
                       7.20118844E-09, -4.64646463E-13,  3.40164710E+02,
                       2.99234364E+01]),
                NASA([1396.00, 5000.00],
                     [ 1.80640936E+01,  2.85111833E-02, -9.67861302E-06,
                       1.49502045E-09, -8.64303710E-14, -6.44920389E+03,
                      -6.70815829E+01])))

species(name='IC4H6OH',
        atoms='C:4 H:7 O:1',
        thermo=(NASA([300.00, 1402.00],
                     [-1.46664187E+00,  6.03351671E-02, -5.43112644E-05,
                       2.49299933E-08, -4.52282491E-12, -6.95012413E+03,
                       3.20768458E+01]),
                NASA([1402.00, 5000.00],
                     [ 1.53490714E+01,  1.38856699E-02, -4.56427754E-06,
                       6.90418690E-10, -3.93540403E-14, -1.20164758E+04,
                      -5.55975530E+01])))

species(name='OHV',
        atoms='H:1 O:1',
        thermo=(NASA([300.00, 1000.00],
                     [ 3.63726600E+00,  1.85091000E-04, -1.67616460E-06,
                       2.38720200E-09, -8.43144200E-13,  5.00213000E+04,
                       1.35886050E+00]),
                NASA([1000.00, 5000.00],
                     [ 2.88273000E+00,  1.01397430E-03, -2.27687700E-07,
                       2.17468300E-11, -5.12630500E-16,  5.02650000E+04,
                       5.59571200E+00])))

species(name='C3H51-2,3OOH',
        atoms='C:3 H:7 O:4',
        thermo=(NASA([298.00, 1000.00],
                     [ 9.32176447E-01,  8.54901848E-02, -1.23079234E-04,
                       9.91652847E-08, -3.24677763E-11, -1.04601429E+04,
                       2.53027474E+01]),
                NASA([1000.00, 6000.00],
                     [ 1.92920199E+01,  1.53125250E-02, -5.36239915E-06,
                       8.48522339E-10, -5.00319374E-14, -1.48744597E+04,
                      -6.55354976E+01])))

species(name='C3H5-A',
        atoms='C:3 H:5',
        thermo=(NASA([300.00, 1373.00],
                     [ 4.47889052E-01,  2.79507544E-02, -1.69490036E-05,
                       5.54378883E-09, -8.95719069E-13,  1.92565554E+04,
                       2.13053621E+01]),
                NASA([1373.00, 5000.00],
                     [ 8.83926244E+00,  1.08489520E-02, -3.76807987E-06,
                       5.91217237E-10, -3.45595703E-14,  1.60424092E+04,
                      -2.47555313E+01])))

species(name='IC3H6OHCHO',
        atoms='C:4 H:8 O:2',
        thermo=(NASA([300.00, 1393.00],
                     [ 1.84080874E+00,  5.29601347E-02, -3.94261774E-05,
                       1.59063430E-08, -2.69565279E-12, -5.01437169E+04,
                       1.75482756E+01]),
                NASA([1393.00, 5000.00],
                     [ 1.60254376E+01,  1.85402212E-02, -6.36973877E-06,
                       9.91732739E-10, -5.76472640E-14, -5.50198923E+04,
                      -5.83074874E+01])))

species(name='C5H10OH14',
        atoms='C:5 H:11 O:1',
        thermo=(NASA([300.00, 1402.00],
                     [ 5.41167710E-01,  5.66862244E-02, -2.94678472E-05,
                       5.84904634E-09, -3.31866473E-14, -1.50943752E+04,
                       3.18827466E+01]),
                NASA([1402.00, 5000.00],
                     [ 1.68143234E+01,  2.44876194E-02, -8.29372543E-06,
                       1.27921101E-09, -7.38804613E-14, -2.12567818E+04,
                      -5.74573295E+01])))

species(name='CC3H4',
        atoms='C:3 H:4',
        thermo=(NASA([300.00, 1000.00],
                     [-2.46210470E-02,  2.31972150E-02, -1.84743570E-06,
                      -1.59275930E-08,  8.68461550E-12,  3.23341370E+04,
                       2.27297620E+01]),
                NASA([1000.00, 5000.00],
                     [ 6.69999310E+00,  1.03573720E-02, -3.45511670E-06,
                       5.06529490E-10, -2.66822760E-14,  3.01990510E+04,
                      -1.33787700E+01])))

species(name='C6H111-5',
        atoms='C:6 H:11',
        thermo=(NASA([298.00, 1360.18],
                     [ 7.95867376E-01,  5.71228406E-02, -3.21146361E-05,
                       8.44477132E-09, -7.12866783E-13,  1.54158463E+04,
                       2.84347352E+01]),
                NASA([1360.18, 5000.00],
                     [ 9.18966331E+00,  3.66910422E-02, -1.48664074E-05,
                       2.76527694E-09, -1.93253061E-13,  1.28071307E+04,
                      -1.59746624E+01])))

species(name='C5H10-2',
        atoms='C:5 H:10',
        thermo=(NASA([200.00, 1000.00],
                     [ 6.38890629E+00,  5.17821802E-03,  8.38243423E-05,
                      -1.08917745E-07,  4.26364870E-11, -6.50631935E+03,
                       4.31672439E-01]),
                NASA([1000.00, 3000.00],
                     [ 3.20177642E+00,  4.19399771E-02, -2.04073772E-05,
                       4.82552052E-09, -4.49688453E-13, -6.77474387E+03,
                       1.06588082E+01])))

species(name='C4H8-2',
        atoms='C:4 H:8',
        thermo=(NASA([300.00, 1383.00],
                     [ 1.30795510E+00,  3.53136624E-02, -1.51866126E-05,
                       1.64112363E-09,  3.44257620E-13, -3.19767852E+03,
                       1.81594717E+01]),
                NASA([1383.00, 5000.00],
                     [ 1.08652083E+01,  1.84123129E-02, -6.26886673E-06,
                       9.70205962E-10, -5.61638967E-14, -7.09625867E+03,
                      -3.51547481E+01])))

species(name='IC4H7O',
        atoms='C:4 H:7 O:1',
        thermo=(NASA([300.00, 1386.00],
                     [ 1.74700687E+00,  4.07783436E-02, -2.44750243E-05,
                       7.06502958E-09, -7.51570589E-13,  4.86979233E+03,
                       1.94535999E+01]),
                NASA([1386.00, 5000.00],
                     [ 1.33457615E+01,  1.61218588E-02, -5.44376403E-06,
                       8.38199374E-10, -4.83608280E-14,  6.11443644E+02,
                      -4.36818838E+01])))

species(name='IC5Y3-1J',
        atoms='C:5 H:9 O:1',
        thermo=(NASA([300.00, 1403.00],
                     [ 2.51943573E+00,  4.61590469E-02, -2.54550286E-05,
                       6.56306739E-09, -5.53024226E-13, -1.03963466E+04,
                       1.91325936E+01]),
                NASA([1403.00, 5000.00],
                     [ 1.44195565E+01,  2.13745113E-02, -7.11468880E-06,
                       1.08421089E-09, -6.20821656E-14, -1.48091567E+04,
                      -4.58099462E+01])))

species(name='HCOH',
        atoms='C:1 H:2 O:1',
        thermo=(NASA([300.00, 1398.00],
                     [-2.82157421E+00,  3.57331702E-02, -3.80861580E-05,
                       1.86205951E-08, -3.45957838E-12,  1.12956672E+04,
                       3.48487757E+01]),
                NASA([1398.00, 5000.00],
                     [ 9.18749272E+00,  1.52011152E-03, -6.27603516E-07,
                       1.09727989E-10, -6.89655128E-15,  7.81364593E+03,
                      -2.73434214E+01])))

species(name='C5H9OH2-1,3O',
        atoms='C:5 H:9 O:2',
        thermo=(NASA([300.00, 1395.00],
                     [ 3.56800170E+00,  6.05489203E-02, -4.89951507E-05,
                       2.05635517E-08, -3.50518920E-12, -2.30692258E+04,
                       1.26146914E+01]),
                NASA([1395.00, 5000.00],
                     [ 1.98060634E+01,  1.88513288E-02, -7.22705730E-06,
                       1.29521535E-09, -8.39977541E-14, -2.83174493E+04,
                      -7.32352371E+01])))

species(name='SC3H4OH',
        atoms='C:3 H:5 O:1',
        thermo=(NASA([300.00, 1409.00],
                     [ 2.44954369E+00,  3.28038175E-02, -2.74206705E-05,
                       1.16743989E-08, -2.01370000E-12, -5.22438373E+03,
                       1.17912854E+01]),
                NASA([1409.00, 5000.00],
                     [ 9.47410666E+00,  1.30017461E-02, -5.98809406E-06,
                       1.20693652E-09, -8.36051867E-14, -7.27956379E+03,
                      -2.46567010E+01])))

species(name='IC4YAA-R',
        atoms='C:4 H:3 O:2',
        thermo=(NASA([100.00, 746.96],
                     [ 1.56757905E+00,  6.06070014E-02, -1.04742394E-04,
                       1.00823056E-07, -3.88707836E-11, -5.74819892E+03,
                       1.80607356E+01]),
                NASA([746.96, 5000.00],
                     [ 6.17912551E+00,  2.59813934E-02, -1.52670682E-05,
                       3.16692137E-09, -2.29097063E-13, -6.16009203E+03,
                      -9.87492840E-01])))

species(name='CY(CCOC)OH',
        atoms='C:3 H:6 O:2',
        thermo=(NASA([300.00, 1433.00],
                     [-5.94615865E+00,  6.41555008E-02, -5.85235665E-05,
                       2.68222743E-08, -4.79465381E-12, -3.07734013E+04,
                       5.39539327E+01]),
                NASA([1433.00, 5000.00],
                     [ 1.16477060E+01,  1.42006208E-02, -4.52110513E-06,
                       6.68183015E-10, -3.74416389E-14, -3.58421461E+04,
                      -3.71322765E+01])))

species(name='SC3H5OCH2-1',
        atoms='C:4 H:7 O:1',
        thermo=(NASA([300.00, 1382.00],
                     [ 2.35694446E-01,  4.67367652E-02, -3.04880689E-05,
                       9.75216148E-09, -1.23281228E-12,  7.11668364E+03,
                       2.81378517E+01]),
                NASA([1382.00, 5000.00],
                     [ 1.47022035E+01,  1.55342107E-02, -5.45701052E-06,
                       8.62544885E-10, -5.06734446E-14,  1.81294800E+03,
                      -5.05120353E+01])))

species(name='NC6D1KET43O',
        atoms='C:6 H:9 O:2',
        thermo=(NASA([300.00, 1375.00],
                     [ 1.76689193E+00,  6.79459750E-02, -4.35183002E-05,
                       1.26903552E-08, -1.29669157E-12, -1.39819379E+04,
                       2.37592523E+01]),
                NASA([1375.00, 5000.00],
                     [ 2.44746788E+01,  2.00440101E-02, -7.12898240E-06,
                       1.13619414E-09, -6.71371320E-14, -2.23391335E+04,
                      -9.99526847E+01])))

species(name='C6H112-5',
        atoms='C:6 H:11',
        thermo=(NASA([298.00, 1356.40],
                     [ 1.11229739E+00,  5.34516842E-02, -2.62251404E-05,
                       4.80153325E-09,  9.12930835E-14,  1.43323776E+04,
                       2.71782004E+01]),
                NASA([1356.40, 5000.00],
                     [ 8.25850619E+00,  3.76513832E-02, -1.52685719E-05,
                       2.84146226E-09, -1.98632977E-13,  1.19848732E+04,
                      -1.11361837E+01])))

species(name='IC3H7OH',
        atoms='C:3 H:8 O:1',
        thermo=(NASA([300.00, 1386.00],
                     [ 2.53082165E-01,  4.17885514E-02, -2.38155431E-05,
                       5.85131023E-09, -3.55868677E-13, -3.45269684E+04,
                       2.42125060E+01]),
                NASA([1386.00, 5000.00],
                     [ 1.25041367E+01,  1.62138229E-02, -5.35019502E-06,
                       8.11483646E-10, -4.63435081E-14, -3.89975520E+04,
                      -4.25158566E+01])))

species(name='PC3H4OH-1',
        atoms='C:3 H:5 O:1',
        thermo=(NASA([300.00, 1403.00],
                     [ 2.07150195E+00,  3.50016810E-02, -3.01922013E-05,
                       1.38467853E-08, -2.55380109E-12,  6.81914209E+03,
                       1.51916605E+01]),
                NASA([1403.00, 5000.00],
                     [ 1.09468986E+01,  1.04014540E-02, -3.44082448E-06,
                       5.22105632E-10, -2.98049266E-14,  4.11530600E+03,
                      -3.11161699E+01])))

species(name='PC4H9',
        atoms='C:4 H:9',
        thermo=(NASA([300.00, 1393.00],
                     [ 4.09644702E-01,  4.29511341E-02, -2.36582809E-05,
                       6.15744917E-09, -5.64300671E-13,  7.74319150E+03,
                       2.55312526E+01]),
                NASA([1393.00, 5000.00],
                     [ 1.18547949E+01,  1.96962095E-02, -6.71054229E-06,
                       1.03891144E-09, -6.01513573E-14,  3.38182243E+03,
                      -3.72343446E+01])))

species(name='AR',
        atoms='Ar:1',
        thermo=(NASA([200.00, 1000.00],
                     [ 2.50000000E+00,  0.00000000E+00,  0.00000000E+00,
                       0.00000000E+00,  0.00000000E+00, -7.45375000E+02,
                       4.37967491E+00]),
                NASA([1000.00, 6000.00],
                     [ 2.50000000E+00,  0.00000000E+00,  0.00000000E+00,
                       0.00000000E+00,  0.00000000E+00, -7.45375000E+02,
                       4.37967491E+00])))

species(name='C6KET34O',
        atoms='C:6 H:11 O:2',
        thermo=(NASA([300.00, 1381.00],
                     [ 4.12858336E+00,  5.94505275E-02, -2.90441820E-05,
                       4.89197474E-09,  9.83287656E-14, -3.04054509E+04,
                       1.46899879E+01]),
                NASA([1381.00, 5000.00],
                     [ 2.23075626E+01,  2.54572934E-02, -8.74888878E-06,
                       1.36294097E-09, -7.92726719E-14, -3.75257518E+04,
                      -8.59030695E+01])))

species(name='C5H9O1-2O-4',
        atoms='C:5 H:9 O:2',
        thermo=(NASA([100.00, 875.32],
                     [ 9.26780414E-01,  5.84984296E-02, -1.63087501E-05,
                      -2.72740218E-08,  1.81709494E-11, -1.10780907E+04,
                       2.44491571E+01]),
                NASA([875.32, 5000.00],
                     [ 1.41362028E+01,  2.54476590E-02, -6.47608423E-06,
                       8.84967809E-10, -5.28490926E-14, -1.44369340E+04,
                      -4.34965645E+01])))

species(name='CH3O2',
        atoms='C:1 H:3 O:2',
        thermo=(NASA([300.00, 1374.00],
                     [ 1.97339205E+00,  1.53542340E-02, -6.37314891E-06,
                       3.19930565E-10,  2.82193915E-13,  2.54278835E+02,
                       1.69194215E+01]),
                NASA([1374.00, 5000.00],
                     [ 6.47970487E+00,  7.44401080E-03, -2.52348555E-06,
                       3.89577296E-10, -2.25182399E-14, -1.56285441E+03,
                      -8.19477074E+00])))

species(name='CYCOOC-CH2',
        atoms='C:4 H:5 O:2',
        thermo=(NASA([300.00, 1403.00],
                     [-2.66210588E-01,  5.57788088E-02, -5.16416215E-05,
                       2.44394027E-08, -4.56852993E-12,  2.74516568E+04,
                       2.66023034E+01]),
                NASA([1403.00, 5000.00],
                     [ 1.49632112E+01,  1.28724587E-02, -4.37191522E-06,
                       6.75553099E-10, -3.90654123E-14,  2.28933543E+04,
                      -5.25926129E+01])))

species(name='IC4H9',
        atoms='C:4 H:9',
        thermo=(NASA([300.00, 1396.00],
                     [ 5.58050275E-02,  4.80008922E-02, -3.34035042E-05,
                       1.28484291E-08, -2.11310293E-12,  6.86745218E+03,
                       2.46372139E+01]),
                NASA([1396.00, 5000.00],
                     [ 1.21140464E+01,  1.93954115E-02, -6.58728459E-06,
                       1.01750858E-09, -5.88134259E-14,  2.64410350E+03,
                      -4.00992454E+01])))

species(name='CH3OCHO',
        atoms='C:2 H:4 O:2',
        thermo=(NASA([298.00, 1000.00],
                     [ 3.95242735E+00,  6.27936769E-03,  3.21013314E-05,
                      -3.93941104E-08,  1.36185570E-11, -4.47899337E+04,
                       9.26882234E+00]),
                NASA([1000.00, 3000.00],
                     [ 1.55821560E+00,  2.63651102E-02, -1.49021985E-05,
                       3.93577994E-09, -3.99334221E-13, -4.47996443E+04,
                       1.82846496E+01])))

species(name='CH3CHCH2COCH3',
        atoms='C:5 H:9 O:1',
        thermo=(NASA([300.00, 1313.00],
                     [ 3.82775077E+00,  3.59153332E-02, -6.78571299E-06,
                      -6.24819689E-09,  2.43917244E-12, -1.08496104E+04,
                       1.55399306E+01]),
                NASA([1313.00, 5000.00],
                     [ 1.45647685E+01,  2.10276788E-02, -6.95711397E-06,
                       1.05654321E-09, -6.03737583E-14, -1.54618001E+04,
                      -4.55117654E+01])))

species(name='CH3COH',
        atoms='C:2 H:4 O:1',
        thermo=(NASA([100.00, 1002.18],
                     [ 2.84111291E+00,  2.24591992E-02, -1.53305901E-05,
                       2.79616250E-09,  8.86886968E-13,  2.46301178E+04,
                       1.07098389E+01]),
                NASA([1002.18, 5000.00],
                     [ 7.92846957E+00,  8.15875470E-03, -2.91410601E-06,
                       5.15186396E-10, -3.55331439E-14,  2.33088834E+04,
                      -1.53492432E+01])))
