"""
 Note: has all species C5 or less removed
"""

units(length='cm', time='s', quantity='mol', act_energy='cal/mol')

ideal_gas(name='gas',
          elements="H Ar O N C He",
          species="""HE              OHCY(COCC)OOH   IQC3H5OTQ-I
                     C4H8O1-2        C2H5CO3H        HOCH2O
                     C4H71-1         H2CCC(S)        H2O2
                     C3H3CH2OOH      SC4H8OH-1O2     CH3OCH3
                     C3H5OH          HO2CH2CHO       C4H2
                     C3H3CH2O        CH3OCHO         C3KET12
                     C3H6COQ3        C2H4O2H         IC4H8O2H-T
                     HCOH            CH3CCHO         C3H2C
                     CH2COHCH2O      PC4H9O2         IC4YAA-R
                     CH2OCHO         IC3H7           C4H64,2-1OH
                     CH3             OVCCVCCJVO      C4H512-OO4
                     IC4H7O2         SQC4H7OHP-1     C4H7O13-4
                     C3H6COQ1        C2H4COCH2OH     CHCHO
                     C2H3CO          CC3H6           SC4H7OOH-I
                     SC2H2OH         PC4H8OH-4       OCH2O2H
                     CH3CHO          QC3H5OHP        O2CH2CHO
                     C4H5-N          OCHO            CH3CHCOCH3
                     CH3COCH3        HOCHCHO         CH3CHCHO
                     C4H71-3OOH      C3H6OH2-1       HO2CH2OCHO
                     IQC3H5OHQ-SJ    C4H6-2          CH3CO3H
                     CH3O2H          C2H3CHOHCH2OO   IC3H6CHO
                     TC3H6OH         C3H6CHO-2O2     OVCCVCVO
                     CH3OCH2O2H      CH3COCH         C2H5O2H
                     C4T1-3R         SC4H7OH-IP      CH3COH
                     C4H5-I          C4H72-2O2       C3H5-A
                     SC3H5OCH2-1     IC4H7OOH        C3H6O3
                     HCCOH           CH2CHOCO        C2H4O1-2
                     CH3COCHOH       C3H6OOH2-1      CVCYCCOC
                     IQC3H6OT        TC3H5OO         C2H3COHOOH
                     CH2CO           QHO2CH2CHCHO    CH3O2
                     IQC3H5OHPJC     C3H6OH1-1       CH2OOHCHCO
                     CH2OH           HOCH2COCH2      C3H8
                     CH2CQCOHQ       C3H6O1-3        C4H71-4OOH
                     CC4H7O-IJ       IC4H7OH         C2H2
                     C3H6OOH1-3      C2H5COCH3       OCHCH2CH2O
                     IC4H9O2H        NC3H7CHO        C3H6OH1-3
                     C4H3-I          OHV             C3H6CHO-1
                     TQJC4H8OH       IC4H6OH         IC4H8OH-IT
                     TQC3H6OI        TC4H9O2         IC4H7-I1
                     NC3H7CO         C4H8OOH2-4      PC4H9
                     SC4H8OH-3O2     C4H8O1-4        C4H72-1OOH
                     C4H6O23         CH2COCH2        QC3H5OHPO2
                     C4H71-4         CH2CH2COCH3     TQJC3H6OH
                     CH2CHOCHO       C4H3-N          C3H3
                     C4Y1-3OR        C4H63,1-2OH     C3H6COQ2
                     CH3CHOOHCHCO    CH2COOHCHO      C4T1-4R
                     SC4H9O2         C4H8OOH1-2      MCP
                     CH2COHCH2OOH    C2H             QC4H7OHP
                     SC4H8OH-1       C3H5-T          CH2OCH2CHO
                     TQC3H5OHIO2     C2H3OH          HOCVCCVO
                     PC4H8OH-2       C4H5-2          C3H5CHOQ2-1
                     CY(CCCOO)       C2H3CHO         C4H63,1-1OH
                     IC3H6CO         SQC4H7OHP-3     CCY(COC)OH
                     C2H3CHOCH2      IC4H7-I1OO      C4H8OOH2-1
                     CH2CHOCH2       C3H4-P          SC4H9O2H
                     C(OH)CY(COC)    CH3CHOOCOCH3    CH2CCH2OH
                     C3KET13         AC4H7OOH        TQC4H7OHI
                     C4H72-1O2       C3H4O1-2        SC4H9O
                     IC4H9           QHO2CH2CH2CO    PC2H4OH
                     CH2O2H          C2H3OO          SC4H8OH-2
                     C3H4CH2OH-3O    IQJC3H6OH       C2H5OH
                     HCO             CYCOOC-CH2      CY(COC)COH
                     CCYCCO-T1       CH2OCH2O2H      CH3#CHCOO#
                     PC4H9O          H2CC            C4H61KET43O
                     C3H6OOH1-3O2    CC4H8O          TQC4H8OI
                     C4H63,1-3OH     C4H71-3OH       HO2CHOH
                     PC3H4OH-1       CH2CCH2OOH      IC3H7O2H
                     IC3H6OHCHO      C2H3COCH3       C4H8O2-3
                     CJVCCVO         CY(CCOC)OH      IQJC4H8OH
                     C2CY(COC)OH     IC3H7OH         C2H5CO3
                     HO2CHO          C4H72-2OH       COHOOHCY(COC)
                     CH3COHCO        IC4H7O          C3H4OH1KT2-3
                     CH3OCO          CO2             C3H6OOH1-2
                     O2CHO           IC3H4CHO-A      IC3H5OOCH2
                     CYCCCOO-3J      C3H6CHO-3       CHOIC3H6O
                     CH4             TC4H9O2H        C4H8-1
                     CH2CH2CHO       C3H51-2,3OOH    CCY(CCO)COH
                     C3H4O21-2       HOCH2CHO        HOCO
                     IC3H5CO         CH2CCO          CHOCOHCH3
                     cCH2COOCH2#     CH3OH           CCYCCJO
                     C2H3OOH         C4H4            IQC4H7OHT
                     IC4H10          C               HOCVCCJVO
                     HOCH2O2         CH3OCH2O        SC4H7OH-I
                     HOCH2CO         C3H3O           CCY(CCOC)OH
                     HOCH2COCH2O     IC3H5Q          C2
                     CH3COCHO        C4H612          C3H2(S)
                     C4H7O1-4        CH3COCH2O       PC4H8OH-1
                     IC4H6OOH-I      IC4H7           CH3CHCO
                     C4H71-1OH       C2H5COOH        OH
                     NC3H7O2H        PC4H8OH-2O2     C3H5-S
                     IQC4H8OT        TQC4H7OHIQ-P    NC3H7OH
                     CH2COHCHO       CY(CCO)CO       CH3OCH2
                     C2H5O2          TC4H8O2H-I      CH3COCH2O2
                     QCH2CH2CO3H     C4H72-2         C4H61-3OOH4
                     CH2COOH         CH3CO           IC3H7O2
                     CH3CCO          IC4H8O2H-I      PC4H8OH-3
                     BUTA123TRIENE   HO2             OHCOCOOHCH3
                     C4H513-OO2      CH2COOCH2OOH    CO
                     IIC4H7Q2-I      HOCH2O2H        C4H6O1-3OOH4
                     C3H5-SOOH       C4H8OOH2-3      C2H3CHOHCO
                     CH2CHOOHCOCH3   C3H5O31         IQC3H5OHPJ
                     C4H7O23-1       CH3OCHCH2       C3H3O2H
                     TC4H9           C4H71-2OH       O2CH2CH2CHO
                     C4H7O2-1        AR              C4H5OH-13
                     CO(CH2OOH)2     C3H6OH1-2       C4H4O
                     CH2             CHV             C2H5CHOHCO
                     C2H2OH          HOCHO           CC3H4
                     N2              O2CCHOOJ        TC3H6CHO
                     AC3H5OCH2       CH2(S)          C2H5CHCO
                     NC4KET21        IQC3H5OHPJO2    C3H5CHOQ3-2
                     CH2COHCO        C3H6O1-2        CH3C(OH)CH
                     SC2H4OH         C4H61OOH3-4     IC4H8OH
                     SC4H7O-I        AC3H5OOH        AC3H5CO
                     C2H3O1-2        CH2CHCHOH       IC3H5CHO
                     C2H6            C3H6CHO-2       NC3H7
                     IQC4H8OTQ-I     C3H3CHO         C4H6-1
                     C3H5O           SC3H5CO         C3H5O1-2OOH-3
                     C4H51,3OH2      C4H71-4O2       CH2CHCHCHO
                     IC4H7O-1        CH3COOH         IC4H8OH-TI
                     C2H3COCH2       C2H5CHO         C3H6OOH2-1O2
                     C3H4CH2OH-1OOH  CH2COCHO        CH3O
                     CH2CHCH2OO      C4H8OOH1-4      TQC3H5OHTO2
                     H2O             PQC4H7OHS-2     C2H5O
                     C3H5O32         PC3H4OH-2       C4H71-2O2
                     C4H72-1OH       C3H6            C4H8-2
                     AC3H5CHO        C2H3COOCH2      C4H8O1-3
                     H               CHOCOHCH2OOH    OC4H5O
                     CH3OCH2O2       NC4H5O2         CH2COOHCH2
                     C4H7O12-4       CH3CO3          C2H5
                     C4H71-3         CH3COCH2        SC3H5OH
                     CH3CH(OO)CHO    C2O             QCH3CH(OOH)CO
                     C4H71-2         C4H8OOH1-3      IC3H7O
                     SC4H8OH-3       O               IC4H8
                     OVCC(VC)COJ     CH2OCHCO        QCH3CHCO3H
                     HOCH2COCH2O2    CJCYCCO         CH3CO2
                     CH              C2H5CO          TQC3H5OHI
                     C2H4            H2              SC4H9
                     HCCO            IC4H9O2         CCYC2OCO
                     HOCH2OCO        C3H2            C2H3CHOHCH2
                     C4H71-O         CH2O            C3H4-A
                     C2H5COCH2       NC3H7O          OCH2CHO
                     IC3H7CHO        SC3H5CHO        C3H6OOH1-2O2
                     CH3COCOHCH3     C4H71-3O2       C4H6O25
                     CHOCHO          C4H10           C2H4OCHO
                     OCH2OCHO        IC3H5OH         OVCC(VC)COOH
                     C2H3            TQC3H5OHIQ-I    SC3H5OO
                     CH3CHOCHCO      IC3H7CO         HO2CH2CO
                     C2HCHO          CYC2H3OCHO      C3KET21
                     IC4H8O          PC4H9O2H        C4H6
                     SC3H4OH         NC3H7O2         TC3H6OCHO
                     C3H4OHOOH1-3-2  CH2CO2          C4H6OHOOH1-4-3
                     CH2COOHCHOH     CCY(CCOO)       TC4H9O
                     O2              TQC3H5OHIQ-P    IC4H9O
                     O2CH2OCH2O2H    C3H6CHO-3O2     C3H6CHO-1O2
                     C4H71-4OH       O2C2H4OH        CH2COOHCH2OO
                     C4H71-1O2       H2C4O           CH2CHO""",
          reactions='all',
          initial_state=state(temperature=300.0, pressure=OneAtm))

#-------------------------------------------------------------------------------
# Species data
#-------------------------------------------------------------------------------

species(name='HE',
        atoms='He:1',
        thermo=(NASA([200.00, 1000.00],
                     [ 2.50000000E+00,  0.00000000E+00,  0.00000000E+00,
                       0.00000000E+00,  0.00000000E+00, -7.45375000E+02,
                       9.28723974E-01]),
                NASA([1000.00, 6000.00],
                     [ 2.50000000E+00,  0.00000000E+00,  0.00000000E+00,
                       0.00000000E+00,  0.00000000E+00, -7.45375000E+02,
                       9.28723974E-01])))

species(name='OHCY(COCC)OOH',
        atoms='C:3 H:6 O:4',
        thermo=(NASA([300.00, 1520.00],
                     [-2.13807799E-01,  5.79347134E-02, -4.16882857E-05,
                       1.38590975E-08, -1.65613593E-12, -4.67090699E+04,
                       3.18890641E+01]),
                NASA([1520.00, 5000.00],
                     [ 1.88928431E+01,  1.38516388E-02, -4.73692460E-06,
                       7.36282623E-10, -4.27819063E-14, -5.31875949E+04,
                      -7.05664934E+01])))

species(name='IQC3H5OTQ-I',
        atoms='C:3 H:7 O:5',
        thermo=(NASA([300.00, 1415.00],
                     [ 4.80614714E+00,  5.68137508E-02, -4.39675105E-05,
                       1.70399951E-08, -2.61590876E-12, -2.85442590E+04,
                       1.23781282E+01]),
                NASA([1415.00, 5000.00],
                     [ 2.17590493E+01,  1.51627633E-02, -5.16409734E-06,
                       7.99713840E-10, -4.63243290E-14, -3.41193762E+04,
                      -7.77619217E+01])))

species(name='C4H8O1-2',
        atoms='C:4 H:8 O:1',
        thermo=(NASA([300.00, 1463.00],
                     [-4.29657099E+00,  6.75906816E-02, -5.89614134E-05,
                       2.59401158E-08, -4.45926746E-12, -1.48799944E+04,
                       4.47755567E+01]),
                NASA([1463.00, 5000.00],
                     [ 1.41886108E+01,  1.63162740E-02, -5.16581368E-06,
                       7.60173986E-10, -4.24548403E-14, -2.02839382E+04,
                      -5.12817914E+01])))

species(name='C2H5CO3H',
        atoms='C:3 H:6 O:3',
        thermo=(NASA([300.00, 1000.00],
                     [-1.03444900E+00,  5.46878100E-02, -4.31028100E-05,
                       1.25906400E-08,  1.00600700E-12, -4.52815900E+04,
                       3.67222100E+01]),
                NASA([1000.00, 3000.00],
                     [-1.10682400E+01,  5.63143000E-02, -2.56204000E-05,
                       5.02007400E-09, -3.57780300E-13, -3.97231100E+04,
                       9.85299900E+01])))

species(name='HOCH2O',
        atoms='C:1 H:3 O:2',
        thermo=(NASA([300.00, 1452.00],
                     [ 4.11183145E+00,  7.53850697E-03,  3.77337370E-06,
                      -5.38746005E-09,  1.45615887E-12, -2.28023001E+04,
                       7.46807254E+00]),
                NASA([1452.00, 5000.00],
                     [ 6.39521515E+00,  7.43673043E-03, -2.50422354E-06,
                       3.84879712E-10, -2.21778689E-14, -2.41108840E+04,
                      -6.63865583E+00])))

species(name='C4H71-1',
        atoms='C:4 H:7',
        thermo=(NASA([200.00, 1000.00],
                     [ 3.95766099E+00,  1.31569933E-02,  4.12154274E-05,
                      -6.31213175E-08,  2.63056457E-11,  2.76691152E+04,
                       9.83668527E+00]),
                NASA([1000.00, 3000.00],
                     [ 4.22666203E+00,  2.77294238E-02, -1.32193951E-05,
                       3.05575689E-09, -2.78037652E-13,  2.70313078E+04,
                       5.21036873E+00])))

species(name='H2CCC(S)',
        atoms='C:3 H:2',
        thermo=(NASA([298.00, 1000.00],
                     [ 3.65239437E+00,  9.12393407E-03, -2.70171860E-07,
                      -4.17863788E-09,  1.81244845E-12,  6.50833396E+04,
                       6.07330419E+00]),
                NASA([1000.00, 3000.00],
                     [ 3.75675072E+00,  1.05198161E-02, -5.31182510E-06,
                       1.30033932E-09, -1.25113890E-13,  6.49793615E+04,
                       5.13544552E+00])))

species(name='H2O2',
        atoms='H:2 O:2',
        thermo=(NASA([200.00, 1000.00],
                     [ 4.31515149E+00, -8.47390622E-04,  1.76404323E-05,
                      -2.26762944E-08,  9.08950158E-12, -1.77067437E+04,
                       3.27373319E+00]),
                NASA([1000.00, 6000.00],
                     [ 4.57977305E+00,  4.05326003E-03, -1.29844730E-06,
                       1.98211400E-10, -1.13968792E-14, -1.80071775E+04,
                       6.64970694E-01])))

species(name='C3H3CH2OOH',
        atoms='C:4 H:6 O:2',
        thermo=(NASA([300.00, 1384.00],
                     [ 1.64825356E+00,  5.28806082E-02, -4.39833841E-05,
                       1.88140805E-08, -3.26453253E-12,  9.50410156E+03,
                       2.21988630E+01]),
                NASA([1384.00, 5000.00],
                     [ 1.76337943E+01,  1.27580284E-02, -4.44136954E-06,
                       6.98375539E-10, -4.08987084E-14,  4.20746041E+03,
                      -6.27097953E+01])))

species(name='SC4H8OH-1O2',
        atoms='C:4 H:9 O:3',
        thermo=(NASA([300.00, 1405.00],
                     [ 1.47037864E+00,  6.38295256E-02, -4.92333916E-05,
                       1.99704964E-08, -3.30499356E-12, -3.08602292E+04,
                       2.63462505E+01]),
                NASA([1405.00, 5000.00],
                     [ 1.88547090E+01,  2.02217653E-02, -6.82328766E-06,
                       1.04961552E-09, -6.05032676E-14, -3.65721162E+04,
                      -6.59105449E+01])))

species(name='CH3OCH3',
        atoms='C:2 H:6 O:1',
        thermo=(NASA([298.00, 1000.00],
                     [ 3.75480003E+00,  9.94330522E-03,  2.04658920E-05,
                      -2.65048607E-08,  9.20398140E-12, -2.38174871E+04,
                       7.12147313E+00]),
                NASA([1000.00, 3000.00],
                     [ 1.13851970E+00,  2.58202899E-02, -1.29425822E-05,
                       3.14818537E-09, -3.01294764E-13, -2.35157473E+04,
                       1.85133202E+01])))

species(name='C3H5OH',
        atoms='C:3 H:6 O:1',
        thermo=(NASA([200.00, 1000.00],
                     [ 3.15011905E+00,  1.28538274E-02,  4.28438434E-05,
                      -6.67818707E-08,  2.80408237E-11, -1.66413668E+04,
                       1.35066359E+01]),
                NASA([1000.00, 6000.00],
                     [ 8.72477114E+00,  1.63942712E-02, -5.90852993E-06,
                       9.53262253E-10, -5.70318010E-14, -1.90496618E+04,
                      -1.97198674E+01])))

species(name='HO2CH2CHO',
        atoms='C:2 H:4 O:3',
        thermo=(NASA([300.00, 1391.00],
                     [-1.32768631E+00,  5.21618601E-02, -4.97327645E-05,
                       2.31272366E-08, -4.20787867E-12, -2.90608844E+04,
                       3.61860491E+01]),
                NASA([1391.00, 5000.00],
                     [ 1.51554685E+01,  7.57240000E-03, -2.72693024E-06,
                       4.38217189E-10, -2.60434287E-14, -3.41419680E+04,
                      -5.01255068E+01])))

species(name='C4H2',
        atoms='C:4 H:2',
        thermo=(NASA([100.00, 1061.12],
                     [ 2.01411625E+00,  3.10619660E-02, -3.68578732E-05,
                       2.21631889E-08, -5.16370619E-12,  5.35900904E+04,
                       1.03657992E+01]),
                NASA([1061.12, 5000.00],
                     [ 8.53383593E+00,  6.48510854E-03, -2.11585438E-06,
                       3.35827397E-10, -2.11540291E-14,  5.22064556E+04,
                      -2.14748326E+01])),
        note='8/8/12GMG')

species(name='C3H3CH2O',
        atoms='C:4 H:5 O:1',
        thermo=(NASA([300.00, 1676.00],
                     [ 5.53696698E+00,  2.18274562E-02, -3.15173599E-06,
                      -3.93256542E-09,  1.28730350E-12,  2.61457576E+04,
                       2.17741565E+00]),
                NASA([1676.00, 5000.00],
                     [ 1.14427994E+01,  1.50893347E-02, -5.59321856E-06,
                       9.19032913E-10, -5.55290838E-14,  2.35239513E+04,
                      -3.19110047E+01])))

species(name='CH3OCHO',
        atoms='C:2 H:4 O:2',
        thermo=(NASA([298.00, 1000.00],
                     [ 3.95242735E+00,  6.27936769E-03,  3.21013314E-05,
                      -3.93941104E-08,  1.36185570E-11, -4.47899337E+04,
                       9.26882234E+00]),
                NASA([1000.00, 3000.00],
                     [ 1.55821560E+00,  2.63651102E-02, -1.49021985E-05,
                       3.93577994E-09, -3.99334221E-13, -4.47996443E+04,
                       1.82846496E+01])))

species(name='C3KET12',
        atoms='C:3 H:6 O:3',
        thermo=(NASA([300.00, 1385.00],
                     [ 1.03882879E+00,  5.34180080E-02, -4.47684141E-05,
                       1.94651680E-08, -3.45055244E-12, -3.70308881E+04,
                       2.56511209E+01]),
                NASA([1385.00, 5000.00],
                     [ 1.70187760E+01,  1.32097361E-02, -4.67054741E-06,
                       7.41411770E-10, -4.36869787E-14, -4.23572589E+04,
                      -5.92615939E+01])))

species(name='C3H6COQ3',
        atoms='C:4 H:7 O:3',
        thermo=(NASA([300.00, 1392.00],
                     [ 4.21432553E+00,  5.11167086E-02, -3.90769436E-05,
                       1.58352754E-08, -2.63755528E-12, -1.89203806E+04,
                       1.32762008E+01]),
                NASA([1392.00, 5000.00],
                     [ 1.82030915E+01,  1.65449087E-02, -5.72142585E-06,
                       9.36828903E-10, -5.72202312E-14, -2.36005480E+04,
                      -6.12005415E+01])))

species(name='C2H4O2H',
        atoms='C:2 H:5 O:2',
        thermo=(NASA([300.00, 1389.00],
                     [ 2.75788364E+00,  2.88271987E-02, -2.08302264E-05,
                       8.47401397E-09, -1.48617610E-12,  3.00153893E+03,
                       1.59921711E+01]),
                NASA([1389.00, 5000.00],
                     [ 1.00590614E+01,  1.13378955E-02, -3.89403387E-06,
                       6.06090687E-10, -3.52212353E-14,  4.24048653E+02,
                      -2.32086536E+01])))

species(name='IC4H8O2H-T',
        atoms='C:4 H:9 O:2',
        thermo=(NASA([300.00, 1385.00],
                     [ 3.07062149E+00,  4.48451773E-02, -2.18981348E-05,
                       3.80366680E-09,  9.33329943E-14, -5.89846659E+03,
                       1.88457783E+01]),
                NASA([1385.00, 5000.00],
                     [ 1.58918892E+01,  2.06730298E-02, -7.08506820E-06,
                       1.10147653E-09, -6.39664273E-14, -1.09442141E+04,
                      -5.20875566E+01])))

species(name='HCOH',
        atoms='C:1 H:2 O:1',
        thermo=(NASA([300.00, 1398.00],
                     [-2.82157421E+00,  3.57331702E-02, -3.80861580E-05,
                       1.86205951E-08, -3.45957838E-12,  1.12956672E+04,
                       3.48487757E+01]),
                NASA([1398.00, 5000.00],
                     [ 9.18749272E+00,  1.52011152E-03, -6.27603516E-07,
                       1.09727989E-10, -6.89655128E-15,  7.81364593E+03,
                      -2.73434214E+01])))

species(name='CH3CCHO',
        atoms='C:3 H:4 O:1',
        thermo=(NASA([100.00, 883.64],
                     [ 2.68347107E+00,  2.93743982E-02, -2.93408969E-05,
                       2.06294433E-08, -6.86839802E-12,  2.96159099E+04,
                       1.36903236E+01]),
                NASA([883.64, 5000.00],
                     [ 2.98584084E+00,  2.37247777E-02, -1.24837190E-05,
                       2.42903257E-09, -1.68049827E-13,  2.97296039E+04,
                       1.32146618E+01])))

species(name='C3H2C',
        atoms='C:3 H:2',
        thermo=(NASA([200.00, 1500.00],
                     [ 1.12958880E+00,  1.72874010E-02, -1.13668230E-05,
                       3.45692960E-09, -3.66159510E-13,  5.84190800E+04,
                       1.73314480E+01]),
                NASA([1500.00, 5000.00],
                     [ 6.56326800E+00,  5.23632560E-03, -1.75448300E-06,
                       2.68661060E-10, -1.54285090E-14,  5.65146180E+04,
                      -1.20006070E+01])))

species(name='CH2COHCH2O',
        atoms='C:3 H:5 O:2',
        thermo=(NASA([300.00, 1381.00],
                     [ 4.12822743E+00,  3.61492278E-02, -2.83466192E-05,
                       1.19441836E-08, -2.11109175E-12, -1.44063959E+04,
                       5.58642020E+00]),
                NASA([1381.00, 5000.00],
                     [ 1.45684365E+01,  1.08981466E-02, -3.83847360E-06,
                       6.07726872E-10, -3.57429471E-14, -1.80383184E+04,
                      -5.03354517E+01])))

species(name='PC4H9O2',
        atoms='C:4 H:9 O:2',
        thermo=(NASA([300.00, 1391.00],
                     [ 1.80541406E+00,  5.26493060E-02, -3.30870383E-05,
                       1.04593484E-08, -1.32305701E-12, -1.03866773E+04,
                       2.24829685E+01]),
                NASA([1391.00, 5000.00],
                     [ 1.66120049E+01,  2.04752336E-02, -7.01415262E-06,
                       1.09010510E-09, -6.32913959E-14, -1.57901735E+04,
                      -5.79272276E+01])))

species(name='IC4YAA-R',
        atoms='C:4 H:3 O:2',
        thermo=(NASA([100.00, 746.96],
                     [ 1.56757905E+00,  6.06070014E-02, -1.04742394E-04,
                       1.00823056E-07, -3.88707836E-11, -5.74819892E+03,
                       1.80607356E+01]),
                NASA([746.96, 5000.00],
                     [ 6.17912551E+00,  2.59813934E-02, -1.52670682E-05,
                       3.16692137E-09, -2.29097063E-13, -6.16009203E+03,
                      -9.87492840E-01])))

species(name='CH2OCHO',
        atoms='C:2 H:3 O:2',
        thermo=(NASA([298.00, 1000.00],
                     [ 3.19932230E+00,  1.93736375E-02, -1.21521306E-06,
                      -1.11559169E-08,  5.18761324E-12, -2.05538696E+04,
                       1.14662057E+01]),
                NASA([1000.00, 3000.00],
                     [ 5.66297823E+00,  1.73979570E-02, -1.01218468E-05,
                       2.73226211E-09, -2.81907442E-13, -2.14389479E+04,
                      -2.38514196E+00])))

species(name='IC3H7',
        atoms='C:3 H:7',
        thermo=(NASA([298.00, 1000.00],
                     [-8.97467137E-01,  4.15744022E-02, -4.94778349E-05,
                       4.56493655E-08, -1.79085437E-11,  9.93950407E+03,
                       2.92641758E+01]),
                NASA([1000.00, 6000.00],
                     [ 6.70775549E+00,  1.74048076E-02, -6.07615926E-06,
                       9.60084351E-10, -5.65656490E-14,  7.55377821E+03,
                      -1.03686516E+01])))

species(name='C4H64,2-1OH',
        atoms='C:4 H:7 O:1',
        thermo=(NASA([300.00, 1391.00],
                     [-7.57727592E-01,  4.98662425E-02, -3.52717214E-05,
                       1.24304234E-08, -1.72237947E-12, -1.88378754E+03,
                       3.24005872E+01]),
                NASA([1391.00, 5000.00],
                     [ 1.41572617E+01,  1.51593460E-02, -5.06194661E-06,
                       7.74219003E-10, -4.44825487E-14, -6.99410675E+03,
                      -4.76128315E+01])))

species(name='CH3',
        atoms='C:1 H:3',
        thermo=(NASA([200.00, 1000.00],
                     [ 3.65717970E+00,  2.12659790E-03,  5.45838830E-06,
                      -6.61810030E-09,  2.46570740E-12,  1.64227160E+04,
                       1.67353540E+00]),
                NASA([1000.00, 6000.00],
                     [ 2.97812060E+00,  5.79785200E-03, -1.97558000E-06,
                       3.07297900E-10, -1.79174160E-14,  1.65095130E+04,
                       4.72247990E+00])))

species(name='OVCCVCCJVO',
        atoms='C:4 H:3 O:2',
        thermo=(NASA([300.00, 1394.00],
                     [ 1.48861249E+00,  4.69160041E-02, -4.70057301E-05,
                       2.33052690E-08, -4.49655195E-12, -1.13474729E+04,
                       1.87634370E+01]),
                NASA([1394.00, 5000.00],
                     [ 1.50223935E+01,  7.87097174E-03, -2.77323288E-06,
                       4.39238238E-10, -2.58421938E-14, -1.53370088E+04,
                      -5.13420340E+01])))

species(name='C4H512-OO4',
        atoms='C:4 H:5 O:2',
        thermo=(NASA([300.00, 1400.00],
                     [ 1.52191421E+00,  4.71698948E-02, -4.03200254E-05,
                       1.80912888E-08, -3.27484097E-12,  2.50993362E+04,
                       2.25474610E+01]),
                NASA([1400.00, 5000.00],
                     [ 1.42836297E+01,  1.30646729E-02, -4.44620310E-06,
                       6.87917196E-10, -3.98144345E-14,  2.10779108E+04,
                      -4.44989804E+01])))

species(name='IC4H7O2',
        atoms='C:4 H:7 O:2',
        thermo=(NASA([300.00, 1400.00],
                     [ 4.15084299E+00,  3.94752452E-02, -2.41391105E-05,
                       7.35785373E-09, -8.62734111E-13,  3.66398034E+03,
                       1.20572678E+01]),
                NASA([1400.00, 5000.00],
                     [ 1.46985770E+01,  1.63053754E-02, -5.42530561E-06,
                       8.26739426E-10, -4.73443541E-14, -1.17858643E+02,
                      -4.50639360E+01])))

species(name='SQC4H7OHP-1',
        atoms='C:4 H:9 O:3',
        thermo=(NASA([300.00, 1405.00],
                     [ 2.74422361E+00,  6.19167385E-02, -4.85718275E-05,
                       2.00663510E-08, -3.37930572E-12, -2.62188841E+04,
                       1.99607477E+01]),
                NASA([1405.00, 5000.00],
                     [ 1.95444650E+01,  1.92958888E-02, -6.52157752E-06,
                       1.00427876E-09, -5.79320306E-14, -3.16981728E+04,
                      -6.90384887E+01])))

species(name='C4H7O13-4',
        atoms='C:4 H:7 O:1',
        thermo=(NASA([300.00, 1436.00],
                     [-4.77192880E+00,  6.22931895E-02, -5.24521126E-05,
                       2.27586745E-08, -3.96956470E-12,  9.25553662E+03,
                       4.91938982E+01]),
                NASA([1436.00, 5000.00],
                     [ 1.26383103E+01,  1.59453761E-02, -5.13309123E-06,
                       7.64898728E-10, -4.31253622E-14,  3.92026536E+03,
                      -4.20695286E+01])))

species(name='C3H6COQ1',
        atoms='C:4 H:7 O:3',
        thermo=(NASA([300.00, 1394.00],
                     [ 4.85903573E-01,  6.53580465E-02, -5.61950815E-05,
                       2.44886578E-08, -4.27885474E-12, -1.97512116E+04,
                       3.08954041E+01]),
                NASA([1394.00, 5000.00],
                     [ 1.80065611E+01,  1.84806776E-02, -7.50685255E-06,
                       1.37789888E-09, -8.99606699E-14, -2.51840204E+04,
                      -6.09987511E+01])))

species(name='C2H4COCH2OH',
        atoms='C:4 H:7 O:2',
        thermo=(NASA([300.00, 1462.00],
                     [ 7.98874348E+00,  1.41152447E-02,  1.86299924E-05,
                      -1.99223089E-08,  5.12983835E-12, -2.98706372E+04,
                      -1.87192030E+00]),
                NASA([1462.00, 5000.00],
                     [ 1.40828195E+01,  1.76833414E-02, -6.09759192E-06,
                       9.52794521E-10, -5.55571628E-14, -3.37518398E+04,
                      -4.08944306E+01])))

species(name='CHCHO',
        atoms='C:2 H:2 O:1',
        thermo=(NASA([298.15, 1000.00],
                     [ 2.33256751E+00,  1.62952986E-02, -9.72052177E-06,
                       5.15124155E-10,  1.03836514E-12,  2.96585452E+04,
                       1.39904923E+01]),
                NASA([1000.00, 2000.00],
                     [ 4.92632910E+00,  9.71712147E-03, -5.54855980E-06,