"""
 Note: has all species C6 or less removed
"""

units(length='cm', time='s', quantity='mol', act_energy='cal/mol')

ideal_gas(name='gas',
          elements="O C Ar H N He",
          species="""HE              CYC4H6-2-CH3    C5H9OH1Q2-3
                     DC5H9O-C        CH2COHCHO       C5H91-3O2
                     AC5H11O         C2H             C5H91-2
                     BUTA123TRIENE   C4H63,1-1OH     MTHF-J5
                     C4H6CHO-2,4O    C3H4OH1KT2-3    C4H72-1O2
                     C5H9OH3Q2-1     C5H9O2-3O-5     TQC4H8OI
                     HO2CHO          IC5CHO1-3O      CCYCCJO
                     C5H8-2          BC5H9-C         OHV
                     IC3H5OOCH2      IC5KETADO       C5H9O23-4
                     C2CY(COC)OH     C4H8O1-2        HOCH2OCO
                     C5H5            C4H61-3OOH4     IC5KETDAO
                     CC5H11O2        IC3H7O          CH3OCH2O2
                     C5H9OH1-4,3     C5H92-4O2       AC5H11
                     C4H7O12-4       NC3H7CHO        C4H512-OO4
                     C3H6OOH2-1O2    IQC3H5OTQ-I     C5H10OH22
                     IC5KETCDO       CH2OOHCHCO      NC4KET21
                     O2C2H4OH        IC4H7-I1        OH
                     CH2OCH2O2H      C5H82O1-4       OCH2CHO
                     BC5H10OH        CH3CCO          C5H9O2-3O-4
                     IQJC3H6OH       IC4H7O          CVCCVCCOH
                     C4H8-1          C2H3COOCH2      CH3O
                     O2CH2OCH2O2H    QCH3CHCO3H      IQC3H5OHPJ
                     IC5D2Y4         PC4H8CHO-4O2    C3H5CHOQ2-1
                     C3H5-A          CH3OCH2O2H      C3H5O1-2OOH-3
                     OHCY(COCC)OOH   C5H81KET43O     C3H6O3
                     NC3H7O2         C4H10           C2H3CO
                     C3H4CH2OH-3O    C4H6O25         C5H81OOH4-3
                     mf25j           C3H5-SOOH       C3H4OHOOH1-3-2
                     C5H82O4-5       CH2CHCHCHO      CC4H7O-IJ
                     C4H5OH-13       C5H10OOH3-2     C4H5-N
                     PC4H8OH-3       SC4H8CHO-2      CHCHO
                     CVCCVCCVO       BC5H11          IC3H5COCH2
                     C5H9OH2-1       C5H10OH15       OC5H7O
                     C3H6OH1-1       HO2CH2CO        C3H3CH2O
                     C5H10O2-3       C5H9OH2-3       CVCCVCCJVO
                     C4H7O23-1       SC2H2OH         CH3COH
                     C4H71-4O2       IC5Y4OOH3-2J    C5H10OOH1-5
                     CH2CYC3H4CH3    C2H3CHOHCH2     NC53ONEO2-2
                     QC3H5OHPO2      C3KET13         C3H4O21-2
                     TQC3H6OI        C4H71-2O2       CH3OCHCH2
                     CH2CCO          CVCC(OO)CVC     IC3H7CHCO
                     CH3OH           C5H10OOH1-4     C4H6CHO-3,1
                     C2H3O1-2        CYC3H4C2H5-2    PC4H8OH-2
                     CO              NC5CYCPER31     C5H9O24-1
                     SQC4H7OHP-3     C5D2Y1-1R       C4H71-4OOH
                     IC5KETCAO       C5H82OOH4-2     B13DE2MJ
                     IC4H7CHO        C3H6CHO-2       NEOC5H10OOH
                     CH3CHOOCOCH3    DC5H10OOH-A     HCO
                     CH2CHCHOH       CJVCCVO         C5H4O
                     C5H81O4-5       CH3COHCO        C3H3O2H
                     CH2CH2COCH3     CYC3H4CHCH3     C5H11O2-1
                     NEOC5KETOX      CH3CHCO         CH3CO3H
                     C2H3COCH3       SC4H7O-I        C5H82-3
                     CH3CHCH2COCH3   HOCH2COCH2      NC4H5O2
                     C2H3            AC3H5OCH2       IC4H8
                     C5H92-3         CYC3H3-1C2H5    C3H6COQ2
                     CH2CHOCHO       CH3COCH3        A-BC5H10O
                     NC5D124         IQC3H6OT        NC3H7OH
                     IQC3H5OHPJO2    CO(CH2OOH)2     NEOC5H11
                     BC5H10OOH-D     C5H81OOH4-5     C5H10OH-5O2
                     CH3COCHO        C5H10OH13       SC4H9O
                     C5H6-L          OCHO            NC5KET24O
                     C5H9O14-5       CH3CO           C2H5O2
                     NC5KET12O       SC4H8OH-2       SC4H8OH-3O2
                     O2              DC5H11O         NC5CYCPER24
                     IC3H7OH         C2H5            C5H92-2
                     BC5H11O         C4H2            NC5KET23O
                     C5H81KET54O     C5H81O3-4       AC5H9-A2
                     TC4H9O2H        NC5KET31O       IC4H10
                     p13de1o4j       IC4H7O2         CC5H11O
                     CO2C5H10OH      CH3             IC4H8O2H-T
                     C4H72-2         C5H82O3-5       C4H5-I
                     TQC3H5OHIO2     NC5KET13O       IC5D1T3-1V
                     C3H6CHO-1       HOCH2O          C5H91-3OOH
                     C5H11-1         C4Y1-3OR        C5H91-4
                     CH3COCH2O       C5H91-5OOH      C5H11O-3
                     CH2OH           CH2COOHCH2      C3H5O32
                     C4H8OOH1-2      PC4H8OH-2O2     AC3H5CHO
                     C5H10OOH2-5     CC5H9-AO        C5H81-2
                     C4H63,1-2OH     CYC3H3-3C2H5    HOCO
                     C3H6OH1-2       SQC4H7OHP-1     BC5H11O2H
                     CH3O2           C5H9O2-4        HCOH
                     AC5H9-C         C5H9O23-1       C5H82OOH1-4
                     IC5KETDBO       CY(CCO)CO       H2
                     C5H10-1         O2C5H10OH21     PC4H8CHO-2
                     CH3CO2          HOCH2COCH2O     CH2OCH2CHO
                     C3H6OOH1-2O2    IC3H4CHO-A      IC4H6OH
                     C5H10OH21       NEOC5H11O2H     IC5D1Y4-3OJ
                     C5H81O3-5       C2HCHO          SC4H9O2H
                     IC5T1-3         NC3H7O          C5H92-1OOH
                     O               PC4H8CHO-2O2    CH3CCHO
                     C5H9OH3-2       CHV             C5H81OOH5-3
                     CH2CQCOHQ       C5H9O23-5       CCY(CCO)COH
                     TC4H9           CO2             C2H5O2H
                     DC5H10OOH-C     CYC3H5CHCH3     H2C4O
                     IC3H5Q          IC4H7-I1OO      C2H5COCH2
                     C4H7CHO-4       AC5H9O-C        AC5H10OOH-A
                     IC4H8OH-IT      C5H9OH2Q3-2     C5H92-4OOH
                     AC5H9O-A2       C5H9O15-3       C2H5CO
                     IC5D2Y4-1J      C4H8OOH2-3      C4H8O2-3
                     C5H10O1-3       SC4H7OH-I       DC5H10O
                     C5H92-5O        C5H9OH1Q2-5     OVCC(VC)COOH
                     CH2O            C2H3COHOOH      IC3H7COCH2
                     C4H8-2          C3H2            IC5D2Y4-1OJ
                     C4H64,2-1OH     NC52ONEO2-4     C5H10OOH1-2O
                     B-DC5H10O       IC3H6CO         CH2COHCO
                     C4H72-2OH       C4H8O1-3        C3H6CHO-3
                     H2CCC(S)        C3H3O           AC3H5CO
                     IC5KETCBO       IC3H7CHO        C5H10OH11
                     IC4H8O2H-I      C5H10O1-2       IC5D1T3-1J
                     C3H6CHO-1O2     C5H92-2O2       CH2CCH2OOH
                     PC3H4OH-1       C4H8OOH2-1      C5H10-2
                     AC5H10OH        C5H10O1-4       IC4H6OOH-I
                     CH2             C5H9O2-3O-1     HOCVCCJVO
                     C4H6CHO-3,2     C5H91-5         O2C5H10OH23
                     CH2COOH         CH3CHOOHCHCO    C5H9OH1-2,4O
                     C#CCVCCJ        C5H5OH          C3KET21
                     C3H6CHO-2O2     NC52ONE-3       QCH3CH(OOH)CO
                     C3H5O31         C5H9OH1-1       DC5H11O2
                     C2H5COCH3       CVCC(OJ)CVC     C5H92-4
                     SC3H5CO         CC5H10OOH-B     OHCOCOOHCH3
                     C4H63,1-3OH     QC3H5OHP        C4H6CHO-4,3
                     CCYCCO-T1       CVCCJCVCOH      IC3H7CO
                     C4H3-I          CCY(COC)OH      IC4H9O2H
                     B12DE3M         NC52ONEO2-5     CCYC2OCO
                     A-CC5H10O       BC5H10          C3H4-P
                     OVCCVCCJVO      CH2CHCH2OO      C5H10OH32
                     C4H71-3OOH      TC3H5OO         CH2COCH2
                     CVCYCCOC        IC4H7OH         C5H11-2
                     H               C5H9OH3Q2-5     C4H6
                     CC3H4           C3H5O           CH3OCHO
                     CYC4H6-3-CH3    CH2OCHO         C4H8OOH1-4
                     HCCOH           SC3H4OH         C5H81OOH4-2
                     C               C2H3OO          C5H7
                     A-AC5H10O       IC5T1-4         QHO2CH2CH2CO
                     C2H3CHOHCH2OO   AC5H9O-D        C3H51-2,3OOH
                     IC5D1Y4-3OOH    IC4H8O          C4H71-1
                     DC5H11O2H       CC5H10OH        NC5H12
                     CH2COHCH2O      CH3COCHOH       IC4H8OH-TI
                     CY(CCOC)OH      TC4H9CO         TC4H9CHO
                     C5H91-5O        C4H7CHO-2       C5H91-2O2
                     C4H7O2-1        IC3H5CHO        C5H9O12-5
                     CJVCCVCCVO      C3H8            C5H11O2H-1
                     NC5KET25O       C2H5O           AO2C5H10OH
                     C5H9O1-2O-3     C3H5-S          C5H11O-2
                     CC5H9-A         CH3CH2CHCOCH3   C5H5O
                     IC3H5COCH3      HOCH2O2H        C4H71-3OH
                     B-CC5H10O       C3H6CHO-3O2     CH3CHOCHCO
                     C5H81OOH5-4     CH2CH2CH2COCH3  CHOIC3H6O
                     O2CHO           CH2COOHCH2OO    IQC4H8OT
                     C5H9OH1-2       C5H9OH1Q2-1     IC4H7O-1
                     AC3H4COCH3      SC4H9CO         NC5CYCPER13
                     C2H2OH          CJCYCCO         CH3CO3
                     C5H81OOH3-5     IC4H9CO         NEOC5H12
                     C4H72-1OOH      CC5H10OOH-A     HCCO
                     C4H513-OO2      NC3H7COCH3      QCH2CH2CO3H
                     DC5H9O-B        IC4H9           C5H10OOH2-1
                     OVCCVCVO        C2H5COC2H5      O2CH2CHO
                     PC4H8CHO-1O2    TC4H9O2         IC5Y3-2J
                     DC5H11          IC3H5CO         CH2COOHCHO
                     IQJC4H8OH       C4H8CHO4-2      SC4H8OH-1O2
                     TC4H8CHO        NC3H7O2H        C5H9OH1-4,3O
                     CC5H10OOH-D     C4H4            CYCOOC-CH2
                     C2H5CHO         AC3H5OOH        C4H8O1-4
                     C4H71-2         C5H9OH2Q3-4     CH2CHO
                     IC5Y3           PQC4H7OHS-2     C5H81O-3-5OOH
                     NC3H7CO         C5H11O2-2       C4H8OOH2-4
                     C5H81OOH5-2     C4H6O23         CYC5H9
                     SC4H8OH-1       cCH2COOCH2#     C2H2
                     CH3CHCHO        IC5D1T3         SC4H7OOH-I
                     CC5H9-D         C5H9OH1-4       IQC4H7OHT
                     OVCC(VC)COJ     DC5H10OOH-B     O2CCHOOJ
                     CC5H11          BO2C5H10OH      C5H10OOH1-3
                     C5H92-3O2       C4H72-1OH       C3H3
                     C4H71-1O2       C5H9OH2-1,3O    C4H71-3
                     CH2CHOCH2       CC5H10          SC4H8CHO-1
                     O2C5H10OH32     CHOCHO          C3H6O1-3
                     C5H10OH-2O2     IC3H5OH         C5H10OH25
                     PC3H4OH-2       C5H4OH          CH2O2H
                     AC4H7OOH        C5H10OH23       C3H3CH2OOH
                     C5H11-3         C5H9O13-5       C5H9OH1-2,4
                     C5H10OH-3O2     NC52ONE-4       NC5KET21
                     PC4H8CHO-3      QC4H7OHP        SC4H8CHO-3
                     TQC3H5OHTO2     C-DC5H10O       PC4H8CHO-1
                     C5H9O1-2O-5     C4H71-1OH       IC4H9O
                     C4H3-N          C5H9O2-1        C4H71-2OH
                     TC3H6OH         CH3CHO          CH3CHCOCH3
                     HOCH2COCH2O2    C4H72-2CHO      C4H612
                     O2CH2CH2CHO     HO2CH2OCHO      BC5H10OOH-A
                     C5H11O2H-3      C5H9OH3-1       IQC4H8OTQ-I
                     C5H10OOH3-1     AC5H11O2        C5H81KET53O
                     NC53ONE-1       C5H91-3         PC4H8CHO-4
                     IC5T1           CH3CHCOC2H5     CH2CYC3H3CH3
                     C5H6            C5H7-14-1O2     C5H9O12-4
                     BC5H10OOH-C     IC4YAA-R        C3H6OH2-1
                     PC4H8OH-1       C3H6COQ3        C5H10OOH2-4
                     C5H10OOH2-3O    C2H3OOH         C5H81KET34O
                     P13DE1J         CC5H9-C         C5H10OH-4O2
                     C3H5-T          C4H7CHO-3       C3H6O1-2
                     C4T1-3R         SC4H8OH-3       SC3H5OCH2-1
                     C4H5-2          SC3H5OO         OC4H5O
                     C5H8-1          C4H7CO1-4       C3H5OH
                     C4H6O1-3OOH4    C4H71-4OH       NEOC5H11O
                     SC4H9O2         AC5H11O2H       HO2
                     SC3H5CHO        C4H8OOH1-3      C5H10O2-4
                     HOCH2O2         C5H92-1O2       NC5KET32O
                     C5H3O           CYCCCOO-3J      QHO2CH2CHCHO
                     HO2CHOH         C2H4O1-2        B2E2M1OJ
                     TC4H8O2H-I      C3H2C           OCH2O2H
                     PC4H9O2         CC5H9O-B        C5H81-3
                     C3H6OOH1-3O2    C2O             TQC3H5OHIQ-P
                     CVCCVCCOJ       C5H9O1-3        OCH2OCHO
                     B13DE2M         HO2CH2CHO       TQJC4H8OH
                     C3H2(S)         AC5H9-D         C5H9OH2Q1-2
                     IC4H8OH         C5H91-4O        OCHCH2CH2O
                     CY(CCCOO)       C2H5OH          IC4H7
                     C5H8D14         C3H6OOH1-2      CC4H8O
                     PC4H9O2H        IC5H12          CYC3H5CHCH2
                     SC4H7OH-IP      PC4H9O          IC5D1T3-4J
                     CC5H11O2H       IC5Y3-1J        CH3COCH
                     C2H3CHO         SC4H9CHO        PC2H4OH
                     CH2COOHCHOH     IC4H7CHO-A      C4H7O13-4
                     C5H9OH2-2       C3H5CHOQ3-2     C5H11O2H-2
                     C5H10OH14       H2CC            CH2CH2CHO
                     CH2COOCH2OOH    C5H82OOH5-3     CH3OCO
                     C3H6OOH1-3      CC5H9-B         C5H9OH2-1,3
                     AC5H10          C2              CH2CHOCO
                     CHOCOHCH3       CH3CYC3H3CH3-3  IC3H6OHCHO
                     AR              C4H51,3OH2      TC3H6OCHO
                     N2              CH3OCH2O        C5H82O2-4
                     AC5H10OOH-B     C5H7-13-3       CYC2H3OCHO
                     NC5KET21O       NC5KET14O       C5H11O2-3
                     C2H4            TC4H9O          BC5H11O2
                     C3H4CH2OH-1OOH  C4H71-O         NC5H11OH
                     CH2CCH2OH       NC5KET15O       C2H5CHOHCO
                     NC53ONEO2-1     MCP             C3H3CHO
                     B13DE2M-3       C5H82OOH5-2     C2H3CHOCH2
                     COHOOHCY(COC)   C2H5CO3         C4T1-4R
                     C2H6            IC3H7           C3H6OH1-3
                     C3H6            CH2CO           C2H3CHOHCO
                     PC4H8OH-4       NEO-C5H10O      CC3H6
                     C5H81O2-4       C4H4O           CH3CYC3H3CH3
                     PC4H9CO         C2H4O2H         C4H61KET43O
                     IC5Y4OOH2-3J    C5H92-1,5OOH    SC2H4OH
                     NC3H7           O2C4H8CHO       CH2(S)
                     IIC4H7Q2-I      HOCHO           B2E3M1OJ
                     CCY(CCOC)OH     H2O             C5H7-13-2
                     HOCH2CHO        CH3COCH2        C4H71-4
                     IC5D2Y4-1OOH    IC4H9O2         C5H92-5
                     TQC4H7OHIQ-P    IQC3H5OHQ-SJ    C2H5CHCO
                     C2H4COCH2OH     AC5H10OOH-D     C3KET12
                     IC3H7O2H        C2H4OCHO        CH3OCH2
                     A-BC5H10O-DJ    IC5D2Y4-4J      C2H3COCH2
                     C3H6COQ1        PC4H8CHO-3O2    C(OH)CY(COC)
                     SC4H9           DC5H9O-A        C4H72-2O2
                     C5H10OOH1-2     C5H91-4O2       CH3CH(OO)CHO
                     C3H4O1-2        PC4H9           C3H4-A
                     C5H9OH3Q2-3     IQC3H5OHPJC     TC3H6CHO
                     HOCHCHO         C2H3OH          TQC3H5OHIQ-I
                     CY(COC)COH      C5H10O1-5       C5H91-1O2
                     IC3H7O2         AC5H10OOH-C     C2H5COOH
                     C5H91-1         CH2CO2          C5H9OH1-3
                     C5H92-5O2       C5H9A-A,DOOH    C5H9O1-2O-4
                     CH3O2H          CH3COCH2O2      CH
                     C5H7-14-1       C4H7O1-4        CH2COHCH2OOH
                     IC4H7OOH        CCY(CCOO)       CH4
                     IC5Y4OH3-2J     IC5KETDCO       IC4H7CO
                     IC5KETAAO       CVCCVCCOO       C5H81OOH4-1
                     CYC3H4C2H5-1    HOCH2CO         CH3COCOHCH3
                     NC5D124-5R      C5H10OH12       C4H6-1
                     NC3H7COCH2      TQC3H5OHI       IC5KETABO
                     CH3#CHCOO#      NEOC5KEJOL      C4H6-2
                     AC5H9-A1        NC52ONEO2-3     C2H5CO3H
                     C4H6OHOOH1-4-3  CH3OCH3         C5H81OOH3-4
                     IC5KETACO       CH2CHOOHCOCH3   TQC4H7OHI
                     SC3H5OH         C5H10OOH2-3     IC3H6CHO
                     CH2CH2COC2H5    C5H11O-1        NEOC5H11O2
                     CH3C(OH)CH      HOCVCCVO        IC5Y4OH2-3J
                     CVCCJCVC        C4H61OOH3-4     CH2COCHO
                     CHOCOHCH2OOH    A-DC5H10O       TQJC3H6OH
                     CH3COOH         C4H71-3O2       PC4H9CHO
                     C5H91-5O2       H2O2            C3H6OOH2-1
                     CH2OCHCO""",
          reactions='all',
          initial_state=state(temperature=300.0, pressure=OneAtm))

#-------------------------------------------------------------------------------
# Species data
#-------------------------------------------------------------------------------

species(name='HE',
        atoms='He:1',
        thermo=(NASA([200.00, 1000.00],
                     [ 2.50000000E+00,  0.00000000E+00,  0.00000000E+00,
                       0.00000000E+00,  0.00000000E+00, -7.45375000E+02,
                       9.28723974E-01]),
                NASA([1000.00, 6000.00],
                     [ 2.50000000E+00,  0.00000000E+00,  0.00000000E+00,
                       0.00000000E+00,  0.00000000E+00, -7.45375000E+02,
                       9.28723974E-01])))

species(name='CYC4H6-2-CH3',
        atoms='C:5 H:9',
        thermo=(NASA([200.00, 1000.00],
                     [ 4.47165391E+00,  4.48910564E-03,  1.03310435E-04,
                      -1.41769187E-07,  5.78159164E-11,  2.12763472E+04,
                       9.05640062E+00]),
                NASA([1000.00, 3000.00],
                     [ 4.30275620E+00,  3.91504819E-02, -1.93282619E-05,
                       4.62906668E-09, -4.36118582E-13,  2.00449661E+04,
                       2.64466797E+00])))

species(name='C5H9OH1Q2-3',
        atoms='C:5 H:11 O:3',
        thermo=(NASA([300.00, 1398.00],
                     [ 3.38964538E+00,  6.71053164E-02, -4.47338908E-05,
                       1.51994925E-08, -2.08454402E-12, -2.74871659E+04,
                       2.12997831E+01]),
                NASA([1398.00, 5000.00],
                     [ 2.22811560E+01,  2.43747251E-02, -8.31537329E-06,
                       1.28873434E-09, -7.46784781E-14, -3.41721221E+04,
                      -8.06285061E+01])))

species(name='DC5H9O-C',
        atoms='C:5 H:9 O:1',
        thermo=(NASA([300.00, 1382.00],
                     [ 2.97148231E+00,  5.09598679E-02, -3.51543120E-05,
                       1.46259326E-08, -2.92662633E-12, -1.23796083E+04,
                       1.31855976E+01]),
                NASA([1382.00, 5000.00],
                     [ 1.64952419E+01,  2.06785496E-02, -7.10753548E-06,
                       1.10711698E-09, -6.43808772E-14, -1.73859201E+04,
                      -6.02592731E+01])))

species(name='CH2COHCHO',
        atoms='C:3 H:4 O:2',
        thermo=(NASA([300.00, 1406.00],
                     [ 5.76639663E-02,  5.16589617E-02, -5.49773816E-05,
                       2.83487148E-08, -5.57464421E-12, -3.39594513E+04,
                       2.29757289E+01]),
                NASA([1406.00, 5000.00],
                     [ 1.40200417E+01,  7.95092924E-03, -2.63244516E-06,
                       3.99896432E-10, -2.28538120E-14, -3.76808145E+04,
                      -4.80457990E+01])))

species(name='C5H91-3O2',
        atoms='C:5 H:9 O:2',
        thermo=(NASA([300.00, 1400.00],
                     [ 2.01030677E+00,  5.80659419E-02, -3.87799974E-05,
                       1.32968323E-08, -1.84795665E-12,  9.87017739E+02,
                       2.38349900E+01]),
                NASA([1400.00, 5000.00],
                     [ 1.80833628E+01,  2.14507648E-02, -7.27996039E-06,
                       1.12428772E-09, -6.49877372E-14, -4.67175613E+03,
                      -6.27892157E+01])))

species(name='AC5H11O',
        atoms='C:5 H:11 O:1',
        thermo=(NASA([300.00, 1400.00],
                     [ 8.43924842E-01,  6.29723769E-02, -4.12079336E-05,
                       1.37396229E-08, -1.84097585E-12, -1.25819035E+04,
                       2.50753974E+01]),
                NASA([1400.00, 5000.00],
                     [ 1.82339413E+01,  2.37923987E-02, -8.07056384E-06,
                       1.24592855E-09, -7.19996103E-14, -1.87450473E+04,
                      -6.87958505E+01])))

species(name='C2H',
        atoms='C:2 H:1',
        thermo=(NASA([200.00, 1000.00],
                     [ 2.89867676E+00,  1.32988489E-02, -2.80733327E-05,
                       2.89484755E-08, -1.07502351E-11,  6.70616050E+04,
                       6.18547632E+00]),
                NASA([1000.00, 6000.00],
                     [ 3.66270248E+00,  3.82492252E-03, -1.36632500E-06,
                       2.13455040E-10, -1.23216848E-14,  6.71683790E+04,
                       3.92205792E+00])))

species(name='C5H91-2',
        atoms='C:5 H:9',
        thermo=(NASA([200.00, 1000.00],
                     [ 6.66382620E+00,  3.15486786E-03,  8.76777048E-05,
                      -1.16766675E-07,  4.68462090E-11,  2.25877099E+04,
                       1.11607791E+00]),
                NASA([1000.00, 3000.00],
                     [ 5.16601511E+00,  3.59353868E-02, -1.71053381E-05,
                       3.93526759E-09, -3.55399257E-13,  2.18877783E+04,
                       2.64001388E+00])))

species(name='BUTA123TRIENE',
        atoms='C:4 H:4',
        thermo=(NASA([100.00, 992.00],
                     [ 2.81497256E+00,  2.11616601E-02, -4.52368710E-07,
                      -1.34151465E-08,  6.41300854E-12,  3.68448311E+04,
                       1.05691721E+01]),
                NASA([992.00, 5000.00],
                     [ 7.69881395E+00,  1.27112900E-02, -4.67313058E-06,
                       8.44284855E-10, -5.91380328E-14,  3.53226669E+04,
                      -1.57415651E+01])))

species(name='C4H63,1-1OH',
        atoms='C:4 H:7 O:1',
        thermo=(NASA([300.00, 1401.00],
                     [-5.96640682E-01,  5.31885124E-02, -4.34791765E-05,
                       1.86514084E-08, -3.23780972E-12, -6.15543596E+03,
                       2.74734171E+01]),
                NASA([1401.00, 5000.00],
                     [ 1.38675222E+01,  1.54795810E-02, -5.17720236E-06,
                       7.91828077E-10, -4.54656891E-14, -1.07655481E+04,
                      -4.87820652E+01])))

species(name='MTHF-J5',
        atoms='C:5 H:9 O:1',
        thermo=(NASA([100.00, 890.80],
                     [ 1.94118652E+00,  2.71867836E-02,  6.48672223E-05,
                      -1.11013801E-07,  4.82710030E-11, -6.46714223E+03,
                       1.62551850E+01]),
                NASA([890.80, 5000.00],
                     [ 1.46102086E+01,  1.86418807E-02, -2.14869585E-06,
                       6.27480844E-11,  5.62493110E-17, -1.06423372E+04,
                      -5.41666046E+01])))

species(name='C4H6CHO-2,4O',
        atoms='C:5 H:7 O:2',
        thermo=(NASA([300.00, 1412.00],
                     [ 3.97585609E+00,  4.80413632E-02, -3.02836687E-05,
                       8.65490146E-09, -7.96226456E-13, -1.10064507E+04,
                       1.20300434E+01]),
                NASA([1412.00, 5000.00],
                     [ 1.86797213E+01,  1.58488448E-02, -5.26854752E-06,
                       8.03211186E-10, -4.60389076E-14, -1.61898706E+04,
                      -6.74721986E+01])))

species(name='C3H4OH1KT2-3',
        atoms='C:3 H:6 O:4',
        thermo=(NASA([100.00, 1031.36],
                     [ 9.56415197E-01,  6.92767922E-02, -7.53075242E-05,
                       4.32235003E-08, -1.00746386E-11, -5.42288083E+04,
                       2.52808909E+01]),
                NASA([1031.36, 5000.00],
                     [ 1.21668112E+01,  2.57987855E-02, -1.20736830E-05,
                       2.34951487E-09, -1.66874108E-13, -5.65412046E+04,
                      -2.91489744E+01])))

species(name='C4H72-1O2',
        atoms='C:4 H:7 O:2',
        thermo=(NASA([300.00, 1391.00],
                     [ 1.29712744E+00,  4.82156354E-02, -3.30645624E-05,
                       1.16680269E-08, -1.67383807E-12,  4.80097907E+03,
                       2.57387128E+01]),
                NASA([1391.00, 5000.00],
                     [ 1.49133658E+01,  1.68566945E-02, -5.68505081E-06,
                       8.74627174E-10, -5.04330107E-14,  4.66363025E+01,
                      -4.75165847E+01])))

species(name='C5H9OH3Q2-1',
        atoms='C:5 H:11 O:3',
        thermo=(NASA([300.00, 1412.00],
                     [ 2.21378080E+00,  7.74046098E-02, -6.34397510E-05,
                       2.73404322E-08, -4.75451857E-12, -2.81463350E+04,
                       2.43747383E+01]),
                NASA([1412.00, 5000.00],
                     [ 2.26751705E+01,  2.32312308E-02, -7.74353614E-06,
                       1.18111227E-09, -6.76722598E-14, -3.45638686E+04,
                      -8.31660032E+01])))

species(name='C5H9O2-3O-5',
        atoms='C:5 H:9 O:2',
        thermo=(NASA([100.00, 865.27],
                     [ 1.12551785E+00,  5.97491505E-02, -3.44994028E-05,
                       2.80103484E-09,  4.49499282E-12, -1.16505312E+04,
                       2.40953209E+01]),
                NASA([865.27, 5000.00],
                     [ 9.51436481E+00,  3.36515901E-02, -1.12439670E-05,
                       1.82328726E-09, -1.16932368E-13, -1.35770245E+04,
                      -1.79055182E+01])))

species(name='TQC4H8OI',
        atoms='C:4 H:9 O:3',
        thermo=(NASA([300.00, 1411.00],
                     [ 7.45747835E-02,  7.46499596E-02, -6.42255048E-05,
                       2.80908988E-08, -4.87692045E-12, -2.47182737E+04,
                       2.94511549E+01]),
                NASA([1411.00, 5000.00],
                     [ 2.13200701E+01,  1.80489663E-02, -6.06124072E-06,
                       9.29740751E-10, -5.34977374E-14, -3.12966663E+04,
                      -8.20046659E+01])))

species(name='HO2CHO',
        atoms='C:1 H:2 O:3',
        thermo=(NASA([300.00, 1378.00],
                     [ 2.42464726E+00,  2.19706380E-02, -1.68705546E-05,
                       6.25612194E-09, -9.11645843E-13, -3.54828006E+04,
                       1.75027796E+01]),
                NASA([1378.00, 5000.00],
                     [ 9.87503878E+00,  4.64663708E-03, -1.67230522E-06,
                       2.68624413E-10, -1.59595232E-14, -3.80502496E+04,
                      -2.24939155E+01])))

species(name='IC5CHO1-3O',
        atoms='C:5 H:8 O:2',
        thermo=(NASA([298.00, 1383.75],
                     [-2.30180423E+00,  7.15635935E-02, -5.76004044E-05,
                       2.41142458E-08, -4.13277080E-12, -3.17061678E+04,
                       3.80442932E+01]),
                NASA([1383.75, 5000.00],
                     [ 1.23036054E+01,  2.95667973E-02, -1.23553974E-05,
                       2.34984108E-09, -1.66908254E-13, -3.57442876E+04,
                      -3.72068260E+01])),
        note='201906')

species(name='CCYCCJO',
        atoms='C:3 H:5 O:1',
        thermo=(NASA([100.00, 845.09],
                     [ 2.72129761E+00,  1.71937247E-02,  3.73948061E-05,
                      -7.27109186E-08,  3.45672307E-11,  9.71355875E+03,
                       1.15594610E+01]),
                NASA([845.09, 5000.00],
                     [ 1.22079143E+01,  4.33359971E-03,  3.34775776E-06,
                      -9.86782049E-10,  7.70139818E-14,  6.96595582E+03,
                      -3.93809096E+01])))

species(name='C5H8-2',
        atoms='C:5 H:8',
        thermo=(NASA([200.00, 1000.00],
                     [ 6.04096763E+00,  8.61887858E-03,  6.27338967E-05,
                      -8.53015032E-08,  3.39688930E-11,  1.27525750E+04,
                       1.84524671E+00]),
                NASA([1000.00, 3000.00],
                     [ 4.13150249E+00,  3.55276772E-02, -1.73157909E-05,
                       4.10046480E-09, -3.82720841E-13,  1.24107008E+04,
                       6.93865723E+00])))

species(name='BC5H9-C',
        atoms='C:5 H:9',
        thermo=(NASA([200.00, 1000.00],
                     [ 7.54182670E+00,  7.35880854E-04,  7.99444741E-05,
                      -9.85237034E-08,  3.74709110E-11,  1.99676553E+04,
                      -4.58105653E+00]),
                NASA([1000.00, 3000.00],
                     [ 3.25602933E+00,  3.88356200E-02, -1.90450777E-05,
                       4.55327743E-09, -4.30459769E-13,  2.00111293E+04,
                       1.15355687E+01])))

species(name='OHV',
        atoms='H:1 O:1',
        thermo=(NASA([300.00, 1710.00],