units(length='cm', time='s', quantity='mol', act_energy='cal/mol')

ideal_gas(name='gas',
          elements="N C O Ar H He",
          species="""HE                TC4H9             CHOCOHCH2OOH
                     XC6D1-3O          NC7H16            QC3H5OHPO2
                     C6H12OOH1-4       QHO2CH2CHCHO      C5H91-2
                     IC4H10            C7H121OOH6-4      NC6D1KET64O
                     C6H101OOH4-2      C7H5              IC6KET4-5O
                     BC5H11            SC4H9             C6Y2-1J
                     IC4H8OH-IT        C6H13O2-3         C5H5CH3-2
                     O2C5H10OH23       C7H14O1-5         CC5H11
                     BC5H10OOH-D       C7KET35           IC6-2
                     I3C6D3            C5H6-L            C2H4OCHO
                     C7H121OOH5-7      C4H6-1            COHOOHCY(COC)
                     CH2CCHCH2CHCH2    IC5KETDAO         C7H121KET34O
                     NEC6O1-4          C5H5CH2-2         SC3H4OH
                     C6Y2              C3H6OOH1-3O2      C2H3CHOHCH2
                     NC52ONE-4         C3KET12           NC3H7
                     AC3H5CO           IC5D1T3-1J        C(OH)CY(COC)
                     C6KET32O          C2H4O2H           C6H10OH1O2-5-4J
                     C5H81OOH3-5       OCHCH2CH2O        C7H121KET53O
                     C5H9O2-4          IC6OOH1-5         XC6-2
                     C7H14O1-2         NEC6KET3-4O       C6H12OH-1O2
                     C3H5OH            C6H102OOH5-6      TC4H9CHO
                     C5H7-14-1         SC4H8OH-2         C6H12OOH1-2O
                     IC6OH2-3O2        IC6OOH5-3         IC6D3-1
                     BC5H11O2          I3C6-2OOH         C5H81OOH4-1
                     HOCHO             C7H13OH1-2        CH3COCH2O2
                     C4H71-4OOH        IC6KET3-4O        A-AC5H10O
                     I3C6OOH1-4        I3C7D1-3O         CH3CYC3H3CH3-3
                     C5H9O24-1         C3H6OH1-1         I3C6D1-6
                     C8H16-3           HX5ENAL2J         IC4H7O2
                     AC5H10OOH-D       C7H121O4-6        C4H7O2-1
                     C4H71-1           CCY(CCOO)         IC6-2O2
                     NC4H5O2           NEOC5KEJOL        I2C8D3-2
                     I3C6OOH3-4        C7H121KET64O      C6Y1D2-6OOJ
                     IC5KETCBO         C5H9O12-5         H15DE25DM-SO
                     C7H121-6          C6H101OOH3-4      C6H12-3
                     C6H5CH2CH2        IC6OOH1-2         SC4H7OOH-I
                     NEC6OOH1-1A       I3C6OOH2-5        C4H71-4OH
                     C6H11O1-2O-3      C5H6              C2H3O1-2
                     OHCOCOOHCH3       IC6OH4-3O2        C5H81OOH3-4
                     C3H4OHOOH1-3-2    B2E2M1OJ          NO2
                     IC3H6CHO          C5H82O4-5         NC3H7COCH2
                     NEOC5H10OOH       C2H5CO3H          C6H102OOH5-4
                     C2H4              CH2COCHO          PC4H8CHO-2
                     C6H5C2H5          I3C8D1            C4H7CO1-4
                     AC3H5CHO          C3H4CH2OH-1OOH    CHX
                     C7H13-3D5O        C3KET21           NEC6OH3-4O2
                     C7H131-1          IQC3H5OHPJO2      C7H14O3-5
                     CH3COCH3          FLUORENE          C6H101OOH3-6
                     C7H121OOH7-6      C7H121OOH4-7      HO2CH2CHO
                     O-O2C6H4CH3       C7H13-1D3OOH      I3C6OH3-4J
                     C4H72-2O2         IC6-4O            CH3CHCOC2H5
                     B13DE2M-3         XC6OOH2-4         O2CH2OCH2O2H
                     PC4H9O            C6Y3-1J           XC6KET1-3O
                     C6H13O-2          AC5H11O2          AC5H9-A2
                     CVCCVCCVO         C5H7-13-3         CY(CCCOO)
                     C6H12OOH3-2       C3H6OH1-3         CYCOOC-CH2
                     CH3OCH2O2H        C5H10OH21         C4H7CHO-2
                     IC6D3             C5H91-3OOH        IC3H7O2
                     AC5H10OH          BC5H11O2H         NEOC5H11O2
                     I3C6OH3-4O2       NC5KET15O         CH2CH2COC2H5
                     HO2               BC5H10OOH-C       I3C6D3-1OOH
                     CH2COHCH2O        XC6OH2-1O2        C7H11D16-3OOH
                     C2H3OO            I3C6OOH4-1        QCH3CH(OOH)CO
                     C6H11OH3-1        C6H11O2-3O-5      C6H111O2-5
                     C6H11OH1Q2-3      C7H14OOH3-1       C4H6O23
                     C6KET24O          C4H7O13-4         IC3H5COCH3
                     C7H131-2O2        XC6OOH1-1A        IC6OOH3-1
                     C7H14O2-3         IC6OH4-3J         NEO-C5H10O
                     C7KET35O          C6H12OH15         NEC6-1
                     TQC3H5OHIO2       IC6OOH5-4         C5H9OH2Q3-4
                     C5H10OH13         CC5H11O2H         C3H2
                     C4H7O1-4          CHV               C3H4OH1KT2-3
                     C4H6O1-3OOH4      BZCOOH            HOC6H4CH3
                     C6H5C2H3          CHXRAD            I4C8D2-4
                     ETES1             C2H5CHOHCO        C4H8OOH1-4
                     CC5H9-AO          C7KET31O          NEC6KET1-3O
                     CCYCCJO           C5H10OOH3-2       C6H12OH-3O2-4
                     IC6-3             C3H5O32           IC6D1-1A
                     AC5H9O-A2         IC6O3-4           NEC6-4OOH
                     CC3H6             AC5H10OOH-A       C5H9O12-4
                     C5H92-4           CH3O2             CH3OCHCH2
                     O2CH2CH2CHO       C3H5-T            HOC6H4CH2OO
                     C4H61OOH3-4       CH3OCH3           C6H111-4
                     I3C6-4O2          IC6D3-2           O2C5H10OH21
                     C4H8-2            QC4H7OHP          IC5D1Y4-3OJ
                     C2H4COCH2OH       PC4H8CHO-4O2      CH3CHCO
                     HOCH2CO           C5H92-3           C5H10OOH1-2O
                     C6KET15O          SC3H5OH           C7KET26O
                     C7H13Q12-5        DC5H11O           H15DE25DM-A
                     C4H7CHO-4         CYPENTN-4M3J      IC6
                     C4H71-2O2         I3C6OH4-3O2       I3C6D2-6OOH
                     CCY(CCO)COH       IC6-5OOH          O2CHO
                     C7H14-1           CH3OCHO           HOCH2OCO
                     C5H91-3O2         CY(CCOC)OH        P-C6H4O2
                     NC52ONE-3         C7H121KET74O      C2H3OH
                     IC6D14            CC5H10OOH-D       C7H11D14-6OOH
                     C5H81-2           VTHF              IC6-3O2
                     C7KET36O          C6H11OH1Q2-1      PC3H4OH-1
                     C4H8-1            C7H131-4O2        C6H11-2D1OOH
                     C5H9O23-1         HO2CHO            C5H7-13-2
                     I3C6KET2-3O       CVCCJCVCOH        C6H13-3
                     XC6D1-3OOH        C5H9OH2Q3-2       C5H11O2-1
                     IC4H8OH           IC6D4-1           C5H10O2-4
                     OVCC(VC)COJ       C3H5-S            C6H11O1O2-5
                     PC4H8CHO-1        C6H9-13-2         C14H10
                     C6KET21O          C7H15-2           DC5H10OOH-C
                     NEC6OH3-4J        C6H12OOH3-1       IC6KET1-3O
                     N                 C5H9A-A,DOOH      C5H5OH
                     AC5H9O-D          NC5KET12O         CH3CH2CHCOCH3
                     I3C6-1            C3H8              C2H3COHOOH
                     C6H11OH3Q2-5      C7H121-4          C5H81O4-5
                     C7H13OH1Q2-1      IC5H12            CH
                     C4H6CHO-4,3       IC6O4-5           C6H12OH-2J3
                     I3C6O2-5          IC5D2Y4-1J        C6H12-2
                     CVCC(OO)CVC       CO(CH2OOH)2       XC6D1-1AO
                     I3C6O1-2          C5H9O2-3O-5       DMTHFCO
                     C6H5CHO           C2H4O1-2          IC6O2-4
                     HX2N1AL6J         NEC6-4O2          C6H12OH-2O2-3
                     C5H11-2           C6H11OH2Q3-2      C7H14OH-1O2-2
                     C7H14OOH3-5       CH3COH            C3H6CHO-3O2
                     CN                C4H7CHO-3         C6H11OH1-5
                     C6H12OOH2-3       C5H9OH2-2         SC4H9CHO
                     C6KET23O          XC6O1-2           I3C6OH4-3J
                     I3C6OH2-1J        CVCCVCCOJ         NC5D124-5R
                     C5H11O-3          CCYC2OCO          C7H121O5-7
                     CH3COCH2          C6H11O1-2O-5      C6H12OOH2-1
                     CVCCVCCOH         C7KET14O          C6H11-3D2OOH
                     I3C6OH2-3J        XC6OOH2-1         C6H12OH-1J2
                     C4H71-O           SC3H5OO           SC3H5CHO
                     C5H10OOH2-3       C7H14OOH4-1       C6H10D14
                     C7H14O1-4         SC2H2OH           SC4H8CHO-1
                     C7KET25O          C5H3O             C5H91-4
                     CH3OCH2           AC5H9-A1          NEOC5KETOX
                     C3H6COQ1          I3C6KET4-3O       I3C6-1O
                     TC4H8O2H-I        C5H82OOH1-4       C7H15-4
                     C                 C2H3OOH           CC5H11O
                     C4H8OOH1-2        C14H13OOH         CO2
                     C6H13-1           C9H7              C5H10O1-5
                     IC5Y4OOH2-3J      I3C6OOH4-2        C8H153-5
                     A-DC5H10O         C5H11O2-3         IC6OOH3-5
                     C5H10O2-3         C3H3              C7H14OOH3-6
                     IC6D13-5R         C6H111-1          C6H5CH2OO
                     C6H12O1-5         I3C6KET1-5O       C2H3CO
                     PC4H8OH-3         IQC3H5OHQ-SJ      IC4H7O-1
                     C5H4OH            C7H15-4O          CC5H9-C
                     C5H9OH3Q2-3       IC6-5             I3C6D3-1O
                     IC5KETABO         C5H81OOH4-3       I3C6D1-4OOH
                     NC5KET24O         CH2CO             C6H12OH-2O2-1
                     C6H11OH3-2        C6H9-13-6         C3H5CHOQ2-1
                     C6H11OH1Q2-5      AC5H11O           C5H10OH12
                     NEC6OOH4-1        CH2COOHCHO        AC5H9-C
                     C7H121OOH5-6      AC3H5OOH          C6H5CHOOCH3
                     TC4H9O2           C4H8OOH2-4        C7H15-3O2
                     C7H132-4          C6H102O4-5        IC6Q15-1A
                     C6H9-13-6O2       IC5Y3-2J          C5H10OOH1-2
                     IQC3H6OT          QCH3CHCO3H        IC6OH4-5J
                     HOCH2COCH2        C2                IC4H7OOH
                     C5H9O2-1          IC6D4-2           CVCCJCVC
                     IC3H5CO           TQC3H5OHI         C2H5O2H
                     C6H11O14-6        C6H10OH1O2-5-6J   C7H13-2D1OOH
                     C6H12OH-5O2       NC53ONE-1         I3C6D1-5O
                     XC6D2             C2H               I3C6D15
                     I3C6OOH1-2        C5H92-4O2         I3C6D13-5
                     IC6-3OOH          IC6OOH1-4         C4H71-1O2
                     IC5KETDBO         C14H14            SC4H9CO
                     XC6OOH2-3         TC3H6CHO          C7H14OOH2-6
                     C5H92-2           HOC6H4CH2         HO2CH2CO
                     IC6OH1-2J         IC6D1-1AO         C5H11O2-2
                     I3C6D1-4          IC6Q45-1          C5H81O-3-5OOH
                     C7H11D14-7OOH     C5H5CH2           C7H14OH-4O2-3
                     C5H9OH1Q2-1       CH3CO3H           C7H121OOH4-2
                     C6KET13O          IQC3H5OHPJC       O-C6H4O2
                     N2O               IC5T1-4           IC6D2
                     BO2C5H10OH        C7H121O4-5        HCCO
                     AC5H10OOH-B       C6H101-5          C7H121OOH4-3
                     C7H132-6          IQC3H5OTQ-I       C4H71-3O2
                     CH2CCH2OH         C7H121O3-4        O2CCHOOJ
                     IC6D13-1AR        NC4KET21          C14H13O
                     C7H15-1           CY(COC)COH        IC5KETAAO
                     IC3H7COCH2        IC6-3O            C4H2
                     C7H131-5O2        IC6KET4-2O        C6H4CH3
                     C2H6              IC4H7CHO          I3C6OOH2-4
                     C7H121OOH3-6      C6H5CH2           C3H6COQ2
                     NEC6OOH3-4        IC4H6OH           H2CC
                     C5H91-4O          C7H121O5-6        C6H12OH-3O2-2
                     I3C6D13-6         IC5D2Y4           CYC2H3OCHO
                     C3H51-2,3OOH      C6H112-4          C6H112O2-4
                     C2H3CHO           C6H101OOH4-5      C5H92-4OOH
                     CYPENTN-4M4J      IC5KETCDO         NEC6D3-1
                     C5H10OH-4O2       C6H102OOH6-4      C7H13OH2-1
                     C6H112-6          NC5H11CO          NC5CYCPER13
                     C6H2              CH2COOHCH2        C5H81OOH4-5
                     I3C6OOH2-6        C5H9OH1-4         C7H14OH-2J1
                     IC3H7CHO          TC4H9O            CH2COHCHO
                     C5H9OH2-1         C7H121OOH5-4      XC6O1-4
                     OCH3C6H4O         C5H7-14-1O2       C5H92-5
                     C5H9O1-2O-4       C6H101O5-6        TQJC4H8OH
                     IC6OOH2-3         C7KET21O          C6H11OH3Q2-3
                     IC6O1-1A          IC6O1-2           B-CC5H10O
                     CC5H10OOH-B       C7H131-3O2        IC5Y3-1J
                     SC3H5OCH2-1       CC5H10OOH-A       NH
                     C3H4-P            CH3CHO            CH2CCO
                     TQC3H5OHIQ-I      C6H5CHCH          CYC6H7
                     C7H11D15-3OOH     IC4H7-I1OO        C6H10D13
                     IC4H7O            NEC6O1-3          C4H8OOH2-3
                     CH3COCHOH         C6H10D24          NC3H7O
                     H                 C4H8OOH2-1        I3C7D1-3
                     XC6D1-3           C5H11-1           FULVENE
                     NC6D1KET53O       C4H71-1OH         C6H10OH1O2-5-3J
                     C14H12            C7H14OOH4-2       C7H14OOH2-3
                     TC3H5OO           C4H6              TC3H6OH
                     NAPH              CC3H4             DC5H10OOH-A
                     XC6-2OOH          C2H3COCH2         I3C6KET1-6O
                     IC3H7OH           C7H13OH2Q1-2      C5H9OH1-4,3
                     C4T1-3R           C5H9OH3Q2-5       I3C6-4O
                     I3C6D2-6          CH3CHOCHCO        NEC6OOH1-4
                     C3H3O2H           C6H12OOH2-4       C6H11-3D2O
                     IC3H7             HOCHCHO           COJCVCCVCC
                     XC6D13            SC4H8CHO-3        AR
                     CC4H8O            IC6O1-3           O2C2H4OH
                     SC4H8OH-3         NAPHO             L-C6H4
                     C2H3CHOHCH2OO     C6H12OH-3J2       O2C4H8CHO
                     C6H13OOH-3        C2H3CHOHCO        IC6OH2-1J
                     C3H6CHO-2         C5H9O1-3          IC6KET3-2O
                     I3C6OH3-2J        C6H111O2-1        C6KET36O
                     C7KET41O          QC3H5OHP          IC4YAA-R
                     XC6OH1-2J         C3H6CHO-1O2       C4H7O12-4
                     TQC3H6OI          XC6-2O2           C7KET12O
                     I3C6-2O           C6H111-3          C6H5OH
                     IC6-1             C3H6OOH1-2O2      C6H12OH-1O2-2
                     SC4H8OH-3O2       C6H10OH1-5,4      IC6-4O2
                     C6H5CCH2          C5H81OOH5-2       C7H121-5
                     XC6O1-1A          C2O               A-CC5H10O
                     PQC4H7OHS-2       C7H14OH-2J3       C3H4CH2OH-3O
                     C-C6H4            I3C6-3O           IC3H6OHCHO
                     IC6OOH3-4         NC6D1KET63        C3H2(S)
                     C-DC5H10O         SC4H9O            OHCY(COCC)OOH
                     C7H14OOH1-2       I3C6OH1-2O2       C6H12O2-4
                     C6H11OH2-2        C5H10-2           DC5H9O-A
                     NEC6-4            AO2C5H10OH        IC6D13
                     IC6O2-3           I3C6KET2-5O       IC6OH5-4O2
                     CH3OCO            C6H12OOH3-4       HOC6H4CH2OOH
                     I3C6D2-6O         C5H10OH-5O2       CH2CHOCH2
                     C2CY(COC)OH       TC3H6OCHO         C7H121OOH5-3
                     IC4H9O2           C6H12OOH2-5       CH2COHCH2OOH
                     NC3H7OH           C5H82-3           CYHX1N3OJ
                     IC4H6OOH-I        C4H63,1-3OH       I3C6O1-4
                     PC4H9CHO          AC3H4COCH3        IC4H7-I1
                     IC6KET5-2O        O                 C7H131-2
                     NC5KET14O         CH3CCO            CC5H9-D
                     IC4H7CO           HX5ENAL3J         IC5Y4OOH3-2J
                     C7H15OOH-3        NCO               CO
                     NC5D124           XC6D1-1AOOH       C6H101OOH5-4
                     C5H10OOH3-1       CC5H11O2          CH2CHCHCHO
                     C6H11OH3Q2-1      AC5H10OOH-C       NEC6KET3-1O
                     IC6OH3-2O2        I3C6OOH2-1        NC3H7CHO
                     C5H91-3           H2C4O             IC5D1T3
                     C6H5CH2O          OH                C4H63,1-2OH
                     C6H12O2-5         XC6D1-4           TQC4H7OHIQ-P
                     C6H11-2D1O        CH3COHCO          PC4H8OH-4
                     I3C6OOH1-3        C6H11-1D3O        C6H12OOH1-3O
                     C2H5CO3           CCY(CCOC)OH       C6H11-1D3OOH
                     C5H5CH3-1         PC4H8OH-1         IC6KET1-1AO
                     B13DE2MJ          IC6KET5-4O        I3C8D1-3O
                     C7H121OOH6-5      C4H8O1-4          C6H102OOH4-5
                     NC5H10CHO-3       C5H8D14           C7H131-1O2
                     IC5D2Y4-1OOH      C6H12O1-2         NC3H7CO
                     IC6D1-4           C7H121O3-6        C6H112O2-1
                     C5H81O3-4         IC4H9             C5H10OOH2-3O
                     C3H5-A            CH2CCH2OOH        IC5T1
                     IC6O3-5           C4H6-2            CH3CYC3H3CH3
                     C6H5CH2CH2OO      IC6D4-3O          I3C6KET2-6O
                     C7H131-4          HOCH2CHO          p13de1o4j
                     C7H14O3-4         C5H9OH3-1         NCN
                     C6H6              I3C6OOH1-6        AC5H9-D
                     OVCCVCCJVO        C6H113O2-2        IC4H8O2H-I
                     C7H11D15-7OOH     C4H71-4O2         NEC6OOH1-3
                     C5H11-3           C7H14OOH2-5       C5H10OH14
                     OC4H5O            C5H81O2-4         I3C6O1-3
                     C6H12OH25         C7H14OOH3-7       C7H14OOH2-4O
                     CVCCVCCOO         IC6Q11A-4         C3H2C
                     C7H131-6          B13DE2M           I3C6D1-3
                     C4H6CHO-3,1       C6H12O1-4         C6H101O2-4
                     C7H131-3          NC5KET32O         C5H91-1
                     NC5KET13O         I3C6D2-5OOH       HOCVCCVO
                     C6H101O4-6        C6H12OOH3-6       NC6KET5OH1-2
                     IQC4H8OTQ-I       C4H72-1OH         IC6D4
                     AC5H9O-C          C7H14OH-1J2       I3C6OOH3-2
                     C5H81KET54O       C2H5CHCO          H2O
                     CHX1Q3J           C7H121OOH3-4      C2H5COCH2
                     C6H94OH2Q1-3O     I3C6OOH2-3        PC4H8CHO-3O2
                     C10H10            C7H133-7          I2C8D3
                     TQJC3H6OH         I3C6OH2-3O2       C5H10OOH2-5
                     C5H9OH2-3         CH2CHCHCHCCH      C14H12OOH
                     PC4H8OH-2         IC5KETCAO         C6KET35O
                     CYC5H9            C5H82OOH4-2       I2C8D2-4O
                     IC3H4CHO-A        BC5H10            C4H51,3OH2
                     I3C6              I3C6D1-6OOH       IC6KET1-2O
                     C7KET42O          CVCCJCVCC         IC6D3-2OOH
                     QHO2CH2CH2CO      CYPENTN-4MJ       C7H121KET65O
                     HO2CH2OCHO        C8H153-5O         C7H15-3
                     CH4               C5H11O-1          C5H9OH3Q2-1
                     C5H92-1OOH        C6H13O2-2         C5H82O2-4
                     DC5H11O2H         CH2COOHCH2OO      C3H3CH2OOH
                     IC4H8O2H-T        C5H10OH11         NEOC5H11
                     IC5KETACO         C4Y1-3OR          TQC3H5OHIQ-P
                     C3H6CHO-1         C4H71-2OH         PC4H9O2
                     C7H121OOH4-6      C5H7              CYC3H5CHCH2
                     C6H101O4-5        C5H81OOH5-3       C5H81KET53O
                     XC6OH2-3J         C4H612            C6H5C2H
                     I3C6KET1-3O       IC6-4             O2CH2CHO
                     OHV               NAPHV             CH3CHOOCOCH3
                     CVCCOJCVCCC       CH3O              C6H11OH2Q1-2
                     C6H12OH16         CVCCVCCOJC        C7H121KET63O
                     C5H9O2-3O-4       C7H15-4O2         I3C6KET4-2O
                     C7H131-7O2        CH2COHCO          CVCCOJCCCVC
                     CH3COCHO          IC6OH3-2J         COOHCVCCVCC
                     H2CCC(S)          C6H12OOH1-2       NC3H7O2H
                     CYCHEXENE         PC4H9             XC6
                     C6H101OOH5-2      C4H64,2-1OH       XC6O1-3
                     CYHEXEN-4J        I3C6-2O2          NEC6-3O2
                     C6H112O2-6        NEC6OOH4-3        HOC6H4CO
                     OC6H4CH3          C6H11OH2Q3-4      B12DE3M
                     I3C6D1-3O         H15DE25DM         IC6OOH2-4
                     IC6KET5-3O        C7H121KET54O      CH3CCHO
                     IC6D2-5           NAPH-             C3H3CHO
                     I3C6D1-3OOH       C4H71-2           CYC3H4C2H5-1
                     CH2CQCOHQ         IC6D1-3OOH        C5H8-1
                     NC3H7O2           IC6OOH2-5         C3H3O
                     OC6H4OH           PC4H9O2H          SC4H8CHO-2
                     CHCHO             HOCO              C3H6OOH1-2
                     XC6-1O            C4T1-4R           IC4H9O
                     C4H512-OO4        C4H3-I            C3H6OOH2-1
                     CYC3H5CHCH3       IC3H7CO           C3H6COQ3
                     C2H5COCH3         C5H11O2H-3        C4H5OH-13
                     C7H14-2           C7H131-6O2        NNH
                     IC6OOH5-1         IC4H8             C5H10OOH1-5
                     C7H15OOH-1        C5H10OOH2-4       C4H5-2
                     CVCC(OJ)CVC       XC6OOH1-2         C7H121OOH6-7
                     C5H92-2O2         CVCCVCCJVO        C7H11D13-7OOH
                     I3C6D2-5          NEC6              NEC6-3
                     I4C8D2-4O         H15DE25DM-S       CH3CO3
                     BC5H10OOH-A       NC6KET2OH1-5      C6H13O-3
                     NEOC5H11O         C6H103O1-2        C6H5CH3
                     C5H9OH1-4,3O      C7H14OOH1-5       C5H10OH-3O2
                     C7H121O2-4        cCH2COOCH2#       CO2C5H10OH
                     IC6D1             IC4H8OH-TI        IC5D1T3-4J
                     IC6-1O2           C6H12OH-6O2       C3H5O31
                     OCH2CHO           C3H6O1-2          NC5H10CHO-5
                     IC6KET5-1O        MVOX              C8H152-4OOH
                     SC4H7O-I          C6H13OOH-2        C6H5CO
                     C5H11O2H-1        CH2               C5H91-4O2
                     NC5KET21O         C7H133-6          IND
                     CH2(S)            I3C6KET1-2O       AC4H7OOH
                     mf25j             C7H15-2O          I3C6O3-4
                     C6H95OH1Q2-4O     SC4H7OH-IP        C5H82OOH5-3
                     C5H9O2-3O-1       I3C6D2            IC6O1-4
                     NEC6OOH3-1        C6KET12O          C2H3CHOCH2
                     C7H121OOH7-5      C6H111O2-4        C7H15-2O2
                     IC6D4-3           C3H6OOH1-3        HCCOH
                     C14H12O           C5H9OH1-2,4       I3C6KET1-4O
                     NC6D1KET54O       C4H8O2-3          C6D2Y1
                     C6H12OOH2-4O      CH2CHOCHO         B2E3M1OJ
                     C5H10OH25         NC52ONEO2-3       CC5H9-A
                     I3C6D25           CH3COCH           IC5T1-3
                     C6H13O-1          I3C6-1O2          CH3CHCHO
                     C2H5CHO           CH2OOHCHCO        IC3H5Q
                     IC6OH1-2O2        IQC4H7OHT         C7H14OH-2O2-3
                     NC52ONEO2-5       IC6-2O            NO
                     I3C6D13           HCO               C5H9OH1-2
                     CYHEXDN13         C6H11O1-2O-4      C6H9-A
                     XC6-1             SC4H8OH-1         C5H9OH1Q2-5
                     C6Y3-6J           CC4H7O-IJ         C5H10O1-2
                     C7H15OOH-2        IC6OH4-5O2        IC5Y4OH2-3J
                     C7H14OH-4J3       IC6D14-1          C6H101OOH6-4
                     CYC3H4CHCH3       C2H5O             C7H121OOH4-5
                     C5H9O23-4         OC5H7O            C2H5
                     C7H13-1D3O        OCH2O2H           C7H121O6-7
                     CVCYCCOC          NC5H11OH          C2H2
                     CCYCCO-T1         NEC6KET1-1AO      BC5H9-C
                     CH2OCHO           CH2CYC3H4CH3      CH3OCH2O
                     C4H10             C14H11            C7H14-3
                     PC3H4OH-2         A-BC5H10O-DJ      I3C6-1OOH
                     HCOH              CH3CHOOHCHCO      C5H10OH22
                     CH2CH2COCH3       CJVCCVCCVO        TQC4H7OHI
                     C5H91-5O          CH2OCH2CHO        IC3H7O
                     C5H10OH23         IC4H7CHO-A        IC6-5O2
                     I3C6OOH4-3        C#CCVCCJ          I3C6D1-6O
                     C5H81KET34O       C6H12OH-2J1       CYC3H4C2H5-2
                     IC6-4OOH          C7H11D13-6OOH     IC4H7
                     O2                C5H9O14-5         C6H111O2-3
                     I3C6D3-2O         C7H121KET76O      C7H121O4-7
                     C6H11O24-1        HNCN              QCH2CH2CO3H
                     PC4H9CO           C5D2Y1-1R         IC3H5CHO
                     SC3H5CO           H2NN              C6H12OOH2-6
                     PC4H8CHO-2O2      C5H92-5O          PC4H8OH-2O2
                     C4H72-2           IC6-2OOH          C7H131-7
                     C7H13OH1Q2-5      HOCVCCJVO         NC52ONEO2-4
                     SC4H9O2           C4H8O1-3          C5H5O
                     C5H91-5OOH        C6H113O2-1        C7H14O1-3
                     C3H6OH1-2         C5H10OH-2O2       C7H14OOH1-4O
                     C4H6OHOOH1-4-3    C3H5CHOQ3-2       C4H72-2OH
                     C3H5O1-2OOH-3     NC5KET23O         C5H9O1-2O-3
                     C7H14O2-6         CH3               C3H4O1-2
                     NEC6-1O2          C4H61-3OOH4       XC6OH1-2O2
                     CH3CH(OO)CHO      C5H10OOH2-1       CH2CO2
                     XC6-1O2           NEC6D3            IC6KET3-1O
                     C6H103OOH2-1      C7H121-3          C6H11O2-3O-1
                     C6D2Y1-1R         C4H71-3OH         C4H72-2CHO
                     IC6O2-5           C6H102O-4-6OOH    C7H6
                     CH2COOHCHOH       SC4H9O2H          NH2
                     C8H153-2          O-OC6H5OJ         C5H82OOH5-2
                     I3C7D1            C7H14OOH1-4       CCY(COC)OH
                     C5H9O15-3         CH3CHCH2COCH3     CH2COOH
                     C5H9O13-5         C6H12O2-3         C5H9O23-5
                     CYC3H3-1C2H5      CH2CHO            MTHF-J5
                     C5H81OOH5-4       C6H101O-3-5OOH    C7KET13O
                     C4H6O25           C6H11OH2-1        IC6O1-5
                     C6H112-5          C6H102O4-6        C6H5
                     C5H9OH1-1         TC4H9CO           IC6OOH1-3
                     C10H9             C4H71-3           C6KET31O
                     C7H131-5          C6H5OO            I3C6D1-5
                     XC6KET1-1AO       C6H11O23-6        C3H4-A
                     CH3C(OH)CH        CC5H9-B           C5H4CH3
                     C6H13OOH-1        C7KET32O          C6H12OOH1-4O
                     NC5H11CHO         NC6D1KET43O       PC4H8CHO-1O2
                     C7H14OH-3J2       C4H8O1-2          C2H5CO
                     C4H72-1OOH        IC3H5OOCH2        CC5H10
                     C6H101O-3-6OOH    C6H11O23-1        IC6OH2-3J
                     C7H133-1          CC5H10OH          PC4H8CHO-3
                     CH3O2H            C5H9OH1-2,4O      IC6D1-3O
                     I3C6D1            C6KET25O          C7H11D14-3OOH
                     IC4H9CO           C3H6CHO-3         CY(CCO)CO
                     I3C6O2-4          CHOCOHCH3         O2C5H10OH32
                     I3C6-3            IC5D1T3-1V        CH3COOH
                     CH2CH2CHO         CHOIC3H6O         SQC4H7OHP-1
                     IC3H7CHCO         IC5KETDCO         I3C6D2-5O
                     C5H9OH1Q2-3       CYC3H3-3C2H5      C5H9OH2-1,3
                     C6H103OOH1-2      IC6OH2-1O2        I3C8D1-3
                     C7H14OOH2-3O      I3C6KET2-4O       CH3COCOHCH3
                     TQC4H8OI          C14H13OO          C7H121OOH3-5
                     EDHF              I3C6D3-2          SQC4H7OHP-3
                     I3C6OOH3-1        C6H11OH1-2        HOC6H4CH2O
                     C4H3-N            CH2O              C2H2OH
                     C16H10            C7H121O3-5        C7KET23O
                     IC6-1O            C5H5CH3           C7KET13