"""
*****************************************************************************************************
                         SUPPLEMENTAL MATERIAL 1 (MECHANISM)
                                          to
Low-temperature gas-phase oxidation of diethyl ether: fuel reactivity and fuel-specific products
     Luc-Sy Tran, Olivier Herbinet, Yuyang Li, Julia Wullenkord, Meirong Zeng, Eike Br uer,
             Fei Qi, Katharina Kohse-H inghaus, Fr d rique Battin-Leclerc
                         Proc. Combust. Inst. 37, 2019
*****************************************************************************************************
This model includes both high and low temperature chemistry of DEE

*****************************************************************************************************
                           SUPPLEMENTAL MATERIAL 1 (THERMO)
                                         to
Low-temperature gas-phase oxidation of diethyl ether: fuel reactivity and fuel specific products
     Luc-Sy Tran, Olivier Herbinet, Yuyang Li, Julia Wullenkord, Meirong Zeng, Eike Br uer,
             Fei Qi, Katharina Kohse-H inghaus, Fr d rique Battin-Leclerc
                         Proc. Combust. Inst. 37, 2019
*****************************************************************************************************
DEE from: Sakai et al.PROCI2015,PROCI2017 and Tran et al.PROCI2017 and group additivity in RMG Gao et al.CPC 2016
Database from: Bugler et al. PROCI2017

"""

units(length='cm', time='s', quantity='mol', act_energy='cal/mol')

ideal_gas(name='gas',
          elements="C H O N Ar He",
          species="""DEE               C2H5OC2H4-B       C2H5OC2H4-A
                     C2OC2H4OO-B       C2OC2H4OO-A       C2OC2-BO2H-A
                     C2OC2-BO2H-1      C2OC2-BO2H-2      C2OC2-AO2H-B
                     C2OC2-AO2H-1      C2OC2-AO2H-2      C2OC2OA-B
                     C2OC2OA-2         C2OC2OB-2         C2OC2OA-1
                     EA                C2H5OCH2CHO       C2H5OC2H4O-B
                     C2H5OC2H4O-A      C2OC2H4OOH-B      C2OC2H4OOH-A
                     EVE               C2H5OCHO          C2H5OC2H4OH-B
                     C2H5OC2H4OH-A     C4O-BO2H-AO2      C4O-BO2H-1O2
                     C4O-BO2H-2O2      C4O-AO2H-BO2      C4O-AO2H-1O2
                     C4O-AO2H-2O2      C4O-BO2H-AO2H-1   C4O-BO2H-1O2H-A
                     C4O-BO2H-2O2H-A   C4O-AO2H-1O2H-B   C2OC2KETB-A
                     C2OC2KETB-1       C2OC2KETB-2       C2OC2KETA-B
                     C2OC2KETA-1       C2OC2KETA-2       C2OC2KETB-1R
                     C2OC2KETA-1R      AA                CC(O)OCCO
                     CH3COOH           HOCH2CHO          C4O-BO2H-AO2H1O2
                     C4O-BO2H-1O2HAO2  C4O-BO2H-2O2HAO2  C4O-AO2H-1O2HBO2
                     C2OC2KETA-B-1     C2OC2KET1-A-B     C2OC2KET2-A-B
                     R52C3H7OE         R51C4H7OEZ        R56C4H7OEV
                     R57C4H7OEV        R61C4H7OEZ        R62C3H5OEZ
                     PC2H4OCHO         SC2H4OCHO         C2H5OCO
                     EA1               EA2               EAm
                     CH3COOCH2         CH2C(OH)2         CH2COOH
                     CCOC(OH)*C        AR                N2
                     HE                H2                H
                     O2                O                 H2O
                     OH                OHV               H2O2
                     HO2               CO                CO2
                     HOCO              CH4               CH3
                     CH2               CH2(S)            C
                     CH                CHV               CH3O2H
                     CH3O2             CH2O2H            CH3OH
                     CH3O              CH2OH             CH2O
                     HCO               HCOH              HO2CHO
                     HOCH2O2H          HOCH2O2           OCH2O2H
                     HOCH2O            O2CHO             HOCHO
                     OCHO              C2H6              C2H5
                     C2H5O2H           C2H5O2            C2H4
                     C2H3              CHOCHO            C2H3OOH
                     C2H3OO            CHCHO             C2H2
                     C2H               H2CC              C2H5OH
                     C2H5O             PC2H4OH           SC2H4OH
                     O2C2H4OH          C2H4O2H           C2H4O1-2
                     C2H3O1-2          CH3CHO            CH3CO
                     CH2CHO            O2CH2CHO          HO2CH2CO
                     C2H3OH            C2H2OH            CH2CO
                     HCCO              HCCOH             CH3CO3H
                     CH3CO3            CH3CO2            CH3OCH3
                     CH3OCH2           CH3OCH2O2H        CH3OCH2O2
                     CH2OCH2O2H        O2CH2OCH2O2H      HO2CH2OCHO
                     OCH2OCHO          HOCH2OCO          CH3OCH2O
                     CH3OCHO           CH3OCO            CH2OCHO
                     C3H8              IC3H7             NC3H7
                     NC3H7O2H          NC3H7O2           IC3H7O2H
                     IC3H7O2           NC3H7O            IC3H7O
                     C3H6OOH1-2        C3H6OOH1-3        C3H6OOH2-1
                     C3H6OOH1-2O2      C3H6OOH1-3O2      C3H6OOH2-1O2
                     C3KET12           C3KET13           C3H51-2,3OOH
                     C3H52-1,3OOH      C3H5O1-2OOH-3     C3H5O1-3OOH-2
                     C3H6O1-2          C3H6O1-3          C3H6
                     C3H5-A            C3H5-S            C3H5-T
                     CC3H6             C3H5O             CH2CHOCH2
                     CH3CHCHO          AC4H7OOH          C3H6OH1-2
                     CH3CHCO           AC3H5OOH          C3H6OH2-1
                     HOC3H6O2          SC3H5OH           IC3H5OH
                     C3H5OH            CH2CCH2OH         C3H4-P
                     C3H4-A            C3H3              CC3H4
                     C3H2              H2CCC(S)          C3H2(S)
                     C3H2C             PC3H4OH-2         SC3H4OH
                     C3H3O             C3H3O2H           C2HCHO
                     C2H5CHO           C2H5CO            CH2CH2CHO
                     C2H3CHO           C2H3CO            CH3COCH3
                     CH3COCH2          CH3COCH2O2        CH3COCH2O
                     C3KET21           C4H10             PC4H9
                     SC4H9             PC4H9O            SC4H9O
                     PC4H9O2           SC4H9O2           PC4H9O2H
                     SC4H9O2H          C4H8OOH1-2        C4H8OOH1-3
                     C4H8OOH1-4        C4H8OOH2-1        C4H8OOH2-3
                     C4H8OOH2-4        C4H8O1-2          C4H8O1-3
                     C4H8O1-4          C4H8O2-3          C4H8OOH1-2O2
                     C4H8OOH1-3O2      C4H8OOH1-4O2      C4H8OOH2-1O2
                     C4H8OOH2-3O2      C4H8OOH2-4O2      C4H71-2,4OOH
                     C4H72-1,3OOH      C4H72-1,4OOH      C4H71-2,3OOH
                     C4H7O1-3OOH-4     C4H7O1-3OOH-2     C4H7O1-2OOH-4
                     C4H7O1-4OOH-2     C4H7O1-2OOH-3     C4H7O2-3OOH-1
                     C4H72-1OOH        NC4KET12          NC4KET13
                     NC4KET14          NC4KET21          NC4KET23
                     NC4KET24          C4H71-4OOH        C4H71-3OOH
                     C4H71-3,4OOH      C4H72-3,4OOH      HO2CH2CHO
                     IC4H10            IC4H9             TC4H9
                     TC4H9O            IC4H9O            IC4H8O
                     IC3H7CHO          IC3H7CO           IC3H6CHO
                     TC3H6CHO          IC3H5CHO          TC3H6O2CHO
                     IC3H5O2HCHO       TC3H6O2HCO        TC3H6OCHO
                     IC3H6CO           IC3H5CO           IC3H4CHO-A
                     SC4H7OH-I         SC4H7OH-IP        IC4H9O2
                     TC4H9O2           IC4H8O2H-I        IC4H8O2H-T
                     TC4H8O2H-I        CC4H8O            IC4H8OOH-IO2
                     IC4H8OOH-TO2      TC4H8OOH-IO2      IC4KETII
                     IC4KETIT          TIC4H7Q2-I        IIC4H7Q2-I
                     IIC4H7Q2-T        IC4H7OOH          IC4H9O2H
                     TC4H9O2H          IC4H8             IC4H7
                     CCYCCC            IC4H7-I1          IC4H7O2
                     IC4H6OOH-I        CCYCCOOC-T1       C2CYCOOC-I1
                     IC4H7O            CVCYCCOC          CCY(C2O)CO
                     CCYCCOOC-I2       CHOIC3H6O         IC3H5OOCH2
                     CCYCCO-T1         IC4H8OH-IT        IC4H8OH-TI
                     IC4H7OH           IC4H8OH           IC4H6OH
                     TQJC4H8OH         TQC4H8OI          QC4H7OHP
                     TQC4H7OHI         CCY(CCO)COH       C2CY(COC)OH
                     IQJC4H8OH         IC3H6OHCHO        IQC4H8OT
                     IQC4H7OHT         CCY(CCOC)OH       CH2COHCH2OOH
                     TC3H6OH           TQC4H7OHIO2       TQC4H7OHTO2
                     TQC4H7OHIQ-I      TQC4H7OHIQ-P      IC3H5COHQ
                     CH2CQCOHQ         IC3H5Q            COHQCYC(COC)
                     QCYC(CCOC)OH      HOCOCQ(CH3)2      IQC4H7OHTO2
                     IQC4H8OTQ-I       IQC4H7OHTQ-P      CHOC(CH3)OHCH2Q
                     CO(CH2OOH)2       CH3COCHO          IC3H5OCH2
                     IC4H7OOCH3        IC4H7OOIC4H7      C4H8-1
                     C4H8-2            C4H71-1           C4H71-2
                     C4H71-3           C4H71-4           C4H72-2
                     C4H71-O           PC4H8OH-2         SC4H8OH-1
                     C4H8OH-1O2        C4H8OH-2O2        C4H6
                     C4H612            C4H6-2            C4H5-I
                     C4H5-N            C4H5-2            C4H4
                     C4H3-I            C4H3-N            C4H2
                     C4H6O25           C2H3CHOCH2        C4H4O
                     C4H6O23           CH2CHCHCHO        H2C4O
                     NC3H7CHO          NC3H7CO           C3H6CHO-1
                     C3H6CHO-2         C3H6CHO-3         SC3H5CHO
                     SC3H5CO           C2H5COCH3         C2H5COCH2
                     CH2CH2COCH3       CH3CHCOCH3        C2H3COCH3
                     CH3CHOOCOCH3      CH2CHOOHCOCH3     C2H5CHCO
                     NC5H12            C5H11-1           C5H11-2
                     C5H11-3           C5H11O2H-1        C5H11O2H-2
                     C5H11O2H-3        C5H11O2-1         C5H11O2-2
                     C5H11O2-3         C5H11O-1          C5H11O-2
                     C5H11O-3          C5H10OOH1-2       C5H10OOH1-3
                     C5H10OOH1-4       C5H10OOH1-5       C5H10OOH2-1
                     C5H10OOH2-3       C5H10OOH2-4       C5H10OOH2-5
                     C5H10OOH3-1       C5H10OOH3-2       C5H10O1-2
                     C5H10O1-3         C5H10O1-4         C5H10O1-5
                     C5H10O2-3         C5H10O2-4         C5H10OOH1-2O2
                     C5H10OOH1-3O2     C5H10OOH1-4O2     C5H10OOH1-5O2
                     C5H10OOH2-1O2     C5H10OOH2-3O2     C5H10OOH2-4O2
                     C5H10OOH2-5O2     C5H10OOH3-1O2     C5H10OOH3-2O2
                     C5H91-2,3OOH      C5H91-2,4OOH      C5H91-2,5OOH
                     C5H91-3,4OOH      C5H91-3,5OOH      C5H91-4,5OOH
                     C5H92-1,3OOH      C5H92-1,4OOH      C5H92-1,5OOH
                     C5H92-3,4OOH      C5H92-3,5OOH      C5H92-4,5OOH
                     C5H93-1,2OOH      C5H93-1,4OOH      C5H93-1,5OOH
                     C5H93-2,4OOH      C5H91-3OOH        C5H91-4OOH
                     C5H91-5OOH        C5H92-1OOH        C5H92-4OOH
                     C5H92-5OOH        C5H9O1-2OOH-3     C5H9O1-2OOH-4
                     C5H9O1-2OOH-5     C5H9O1-3OOH-2     C5H9O1-3OOH-4
                     C5H9O1-3OOH-5     C5H9O1-4OOH-2     C5H9O1-4OOH-3
                     C5H9O1-4OOH-5     C5H9O1-5OOH-2     C5H9O1-5OOH-3
                     C5H9O2-3OOH-1     C5H9O2-3OOH-4     C5H9O2-3OOH-5
                     C5H9O2-4OOH-1     C5H9O2-4OOH-3     C5H9O1-2O-5
                     CH2CH2OCH2CH2CHO  NC5KET12          NC5KET13
                     NC5KET14          NC5KET15          NC5KET21
                     NC5KET23          NC5KET24          NC5KET25
                     NC5KET31          NC5KET32          NC5KET12O
                     NC5KET13O         NC5KET14O         NC5KET15O
                     NC5KET21O         NC5KET23O         NC5KET24O
                     NC5KET25O         NC5KET31O         NC5KET32O
                     NC5DIONE13        NC5DIONE24        C5H10OH23
                     O2C5H10OH12       O2C5H10OH23       OCH2CHO
                     CH2OCH2CHO        C2H4OCHO          C4H7O1-4
                     C4H8OH2-1         C5H10OOH1-3OH     C5H10OOH2-4OH
                     C5H10OOH3-1OH     NC5CYCPER13       NC5CYCPER24
                     NC5CYCPER31       IC5H12            AC5H11
                     BC5H11            CC5H11            DC5H11
                     AC5H9O-A2         AC5H11O2H         BC5H11O2H
                     CC5H11O2H         DC5H11O2H         AC5H11O2
                     BC5H11O2          CC5H11O2          DC5H11O2
                     AC5H11O           BC5H11O           CC5H11O
                     DC5H11O           AC5H10OOH-A       AC5H10OOH-B
                     AC5H10OOH-C       AC5H10OOH-D       BC5H10OOH-A
                     BC5H10OOH-C       BC5H10OOH-D       CC5H10OOH-A
                     CC5H10OOH-B       CC5H10OOH-D       DC5H10OOH-A
                     DC5H10OOH-B       DC5H10OOH-C       A-AC5H10O
                     A-BC5H10O         A-CC5H10O         A-DC5H10O
                     B-CC5H10O         B-DC5H10O         C-DC5H10O
                     AC5H10OOH-AO2     AC5H10OOH-BO2     AC5H10OOH-CO2
                     AC5H10OOH-DO2     BC5H10OOH-AO2     BC5H10OOH-CO2
                     BC5H10OOH-DO2     CC5H10OOH-AO2     CC5H10OOH-BO2
                     CC5H10OOH-DO2     DC5H10OOH-AO2     DC5H10OOH-BO2
                     DC5H10OOH-CO2     C5H9A-A,BOOH      C5H9A-A,COOH
                     C5H9A-A,DOOH      C5H9A-B,COOH      C5H9A-B,DOOH
                     C5H9A-C,DOOH      C5H9B-A,AOOH      C5H9B-A,COOH
                     C5H9B-A,DOOH      C5H9B-C,DOOH      C5H9C-A,AOOH
                     C5H9C-A,BOOH      C5H9C-A,DOOH      C5H9C-B,DOOH
                     C5H9D-A,AOOH      C5H9D-A,BOOH      C5H9D-A,COOH
                     C5H9D-B,COOH      C5H9A-AOOH        C5H9A-COOH
                     C5H9A-DOOH        C5H9B-AOOH        C5H9B-DOOH
                     C5H9C-AOOH        C5H9C-BOOH        C5H9OA-AOOH-B
                     C5H9OA-AOOH-C     C5H9OA-AOOH-D     C5H9OA-BOOH-A
                     C5H9OA-BOOH-C     C5H9OA-BOOH-D     C5H9OA-COOH-A
                     C5H9OA-COOH-B     C5H9OA-COOH-D     C5H9OA-DOOH-A
                     C5H9OA-DOOH-B     C5H9OA-DOOH-C     C5H9OB-COOH-A
                     C5H9OB-COOH-D     C5H9OB-DOOH-A     C5H9OB-DOOH-C
                     C5H9OC-DOOH-A     C5H9OC-DOOH-B     CH3COCH2OCH2CH2
                     IC5KETAA          IC5KETAB          IC5KETAC
                     IC5KETAD          IC5KETCA          IC5KETCB
                     IC5KETCD          IC5KETDA          IC5KETDB
                     IC5KETDC          IC5KETAAO         IC5KETABO
                     IC5KETACO         IC5KETADO         IC5KETCAO
                     IC5KETCBO         IC5KETCDO         IC5KETDAO
                     IC5KETDBO         IC5KETDCO         AC5H10OH
                     BC5H10OH          CC5H10OH          AO2C5H10OH
                     BO2C5H10OH        CO2C5H10OH        IC3H5COCH3
                     IC3H5COCH2        AC3H4COCH3        C4H7O2-1
                     AC3H5OCH2         SC3H5OOH          NEOC5H12
                     NEOC5H11          NEOC5H11O2H       NEOC5H11O2
                     NEOC5H11O         NEOC5H10OOH       NEO-C5H10O
                     NEOC5H10OOH-O2    NEOC5H9Q2         NEOC5KET
                     NEOC5KETOX        NEOC5KEJOL        IC4H6Q2-II
                     NEOC5H9O-OOH      C5H10-1           C5H10-2
                     C5H81-3           C5H91-3           C5H91-4
                     C5H91-5           C5H92-4           C5H92-5
                     C5H9O1-3          C5H9O2-4          BC5H10
                     CC5H10            CC5H9-A           CC5H9-B
                     AC5H9O-C          CC5H9O-B          AC5H10
                     AC5H9-A2          AC5H9-C           AC5H9-D
                     B2E2M1OJ          B13DE2M           B13DE2MJ
                     B12DE3M           B2E3M1OJ          TC4H8CHO
                     O2C4H8CHO         O2HC4H8CO         PC4H8CHO-1O2
                     PC4H8CHO-2O2      PC4H8CHO-3O2      PC4H8CHO-4O2
                     C4H7CHO-2         C4H7CHO-3         C4H7CHO-4
                     NC3H7COCH3        C2H5COC2H5        NC3H7COCH2
                     CH3CH2CHCOCH3     CH3CHCH2COCH3     CH2CH2CH2COCH3
                     CH2CH2COC2H5      CH3CHCOC2H5       NC52ONEO2-3
                     NC52ONEO2-4       NC52ONEO2-5       NC53ONEO2-1
                     NC53ONEO2-2       NC52ONE-3         NC52ONE-4
                     NC53ONE-1         NC5H11OH          C5H10OH11
                     C5H10OH12         C5H10OH13         C5H10OH14
                     C5H10OH15         C4H7OH1-3         C5H10OH-1O2
                     C5H10OH-2O2       C5H10OH-3O2       C5H10OH-4O2
                     C5H10OH-5O2       C5H9OH1-1         C5H9OH1-2
                     C5H9OH1-3         C5H9OH1-4         C4H7O12-4
                     C4H7O13-4         C4H7O23-1         C5H9O12-5
                     C5H9O13-5         C5H9O14-5         C5H9O23-1
                     C5H9O23-5         C5H9O24-1         AC3H5CHO
                     PC4H9CO           C2H5COOH          PC4H9CHO
                     PC4H8CHO-1        PC4H8CHO-2        PC4H8CHO-3
                     PC4H8CHO-4        H15DE25DM         H15DE25DM-S
                     H15DE25DM-A       H15DE25DM-AO      H15DE25DM-SO
                     H15DE2M-T         IC4H7CHO""",
          reactions='all',
          initial_state=state(temperature=300.0, pressure=OneAtm))

#-------------------------------------------------------------------------------
# Species data
#-------------------------------------------------------------------------------

species(name='DEE',
        atoms='C:4 H:10 O:1',
        thermo=(NASA([300.00, 1000.00],
                     [ 7.04482650E+00,  1.83195580E-02,  3.55081280E-05,
                      -5.02668130E-08,  1.89013840E-11, -3.38341760E+04,
                      -5.84275200E+00]),
                NASA([1000.00, 2500.00],
                     [ 3.78564290E+00,  4.25981540E-02, -2.18045100E-05,
                       5.47179280E-09, -5.46342210E-13, -3.36551840E+04,
                       7.33101460E+00])),
        note='CBS-QB3')

species(name='C2H5OC2H4-B',
        atoms='C:4 H:9 O:1',
        thermo=(NASA([300.00, 1000.00],
                     [ 5.85194970E+00,  2.29053590E-02,  2.36937450E-05,
                      -4.13043400E-08,  1.65960800E-11, -7.88021730E+03,
                       2.70002370E+00]),
                NASA([1000.00, 2500.00],
                     [ 4.96847580E+00,  3.76126280E-02, -1.91373440E-05,
                       4.76861480E-09, -4.72235800E-13, -8.17792380E+03,
                       4.42054750E+00])),
        note='CBS-QB3')

species(name='C2H5OC2H4-A',
        atoms='C:4 H:9 O:1',
        thermo=(NASA([300.00, 1000.00],
                     [ 3.53521820E+00,  3.54038480E-02, -2.27973670E-07,
                      -2.17372290E-08,  1.07185940E-11, -1.13436740E+04,
                       1.23808270E+01]),
                NASA([1000.00, 2500.00],
                     [ 5.43904260E+00,  3.64642110E-02, -1.82511990E-05,
                       4.47333640E-09, -4.35636930E-13, -1.20917330E+04,
                       1.23262560E+00])),
        note='CBS-QB3')

species(name='C2OC2H4OO-B',
        atoms='C:4 H:9 O:3',
        thermo=(NASA([200.00, 1000.00],
                     [ 8.83038744E+00,  1.40263683E-02,  7.29692933E-05,
                      -1.01492271E-07,  4.01881706E-11, -2.61343236E+04,
                      -6.80851245E+00]),
                NASA([1000.00, 5000.00],
                     [ 1.29873343E+01,  3.24217487E-02, -1.31532096E-05,
                       2.43479795E-09, -1.68723226E-13, -2.86918484E+04,
                      -3.54109461E+01])),
        note='gpop')

species(name='C2OC2H4OO-A',
        atoms='C:4 H:9 O:3',
        thermo=(NASA([200.00, 1000.00],
                     [ 6.48553151E+00,  3.05579836E-02,  3.99701650E-05,
                      -7.44017790E-08,  3.21225833E-11, -3.12934854E+04,
                       1.19693461E+00]),
                NASA([1000.00, 5000.00],
                     [ 1.39405688E+01,  3.12309210E-02, -1.25998458E-05,
                       2.32340639E-09, -1.60566058E-13, -3.42863210E+04,
                      -4.21928453E+01])),
        note='gpop')

species(name='C2OC2-BO2H-A',
        atoms='C:4 H:9 O:3',
        thermo=(NASA([200.00, 1000.00],
                     [ 9.55168101E+00,  8.17878109E-03,  9.41413854E-05,
                      -1.30857218E-07,  5.32456648E-11, -2.18010666E+04,
                      -8.14319393E+00]),
                NASA([1000.00, 5000.00],
                     [ 1.39930402E+01,  3.03365826E-02, -1.21431384E-05,
                       2.22713922E-09, -1.53329088E-13, -2.44844424E+04,
                      -3.88502597E+01])),
        note='gpop')

species(name='C2OC2-BO2H-1',
        atoms='C:4 H:9 O:3',
        thermo=(NASA([200.00, 1000.00],
                     [ 5.04808634E+00,  4.26200320E-02,  1.04521794E-05,
                      -4.61842566E-08,  2.24965910E-11, -2.12967101E+04,
                       8.46202301E+00]),
                NASA([1000.00, 5000.00],
                     [ 1.43850333E+01,  3.00271318E-02, -1.20372502E-05,
                       2.20997449E-09, -1.52257167E-13, -2.44095186E+04,
                      -4.26669048E+01])),
        note='gpop')

species(name='C2OC2-BO2H-2',
        atoms='C:4 H:9 O:3',
        thermo=(NASA([200.00, 1000.00],
                     [ 1.03210441E-02,  9.17557892E-02, -1.25356231E-04,
                       1.02484046E-07, -3.44036067E-11, -1.76011243E+04,
                       2.82167823E+01]),
                NASA([1000.00, 5000.00],
                     [ 1.46003851E+01,  2.97905259E-02, -1.19430959E-05,
                       2.19373055E-09, -1.51227043E-13, -2.07908321E+04,
                      -4.24421039E+01])),
        note='gpop')

species(name='C2OC2-AO2H-B',
        atoms='C:4 H:9 O:3',
        thermo=(NASA([200.00, 1000.00],
                     [ 8.07145649E+00,  2.25467800E-02,  6.24342313E-05,
                      -1.02295279E-07,  4.38644988E-11, -2.28466658E+04,
                      -4.07451026E+00]),
                NASA([1000.00, 5000.00],
                     [ 1.52643292E+01,  2.89179302E-02, -1.15225498E-05,
                       2.10669483E-09, -1.44716880E-13, -2.58715035E+04,
                      -4.69522281E+01])),
        note='gpop')

species(name='C2OC2-AO2H-1',
        atoms='C:4 H:9 O:3',
        thermo=(NASA([200.00, 1000.00],
                     [ 5.48781912E+00,  4.28070979E-02,  1.50179745E-05,
                      -5.64235716E-08,  2.78373410E-11, -2.67615341E+04,
                       5.79370344E+00]),
                NASA([1000.00, 5000.00],
                     [ 1.58131280E+01,  2.81951559E-02, -1.11786464E-05,
                       2.03656329E-09, -1.39539814E-13, -3.00683226E+04,
                      -5.03132425E+01])),
        note='gpop')

species(name='C2OC2-AO2H-2',
        atoms='C:4 H:9 O:3',
        thermo=(NASA([200.00, 1000.00],
                     [ 7.34829014E+00,  2.61285123E-02,  5.74709655E-05,
                      -9.99728318E-08,  4.37153448E-11, -2.32789122E+04,
                      -1.11851580E+00]),
                NASA([1000.00, 5000.00],
                     [ 1.55361733E+01,  2.85959434E-02, -1.13771118E-05,
                       2.07790752E-09, -1.42631483E-13, -2.64922414E+04,
                      -4.87742206E+01])),
        note='gpop')

species(name='C2OC2OA-B',
        atoms='C:4 H:8 O:2',
        thermo=(NASA([200.00, 1000.00],
                     [ 5.69429600E+00,  1.14860862E-02,  8.47912298E-05,
                      -1.22849989E-07,  5.08233989E-11, -3.38613198E+04,
                       3.62948605E+00]),
                NASA([1000.00, 5000.00],
                     [ 1.13106455E+01,  2.80029273E-02, -1.13117725E-05,
                       2.08756585E-09, -1.44344116E-13, -3.67425958E+04,
                      -3.25361378E+01])),
        note='gpop')

species(name='C2OC2OA-2',
        atoms='C:4 H:8 O:2',
        thermo=(NASA([200.00, 1000.00],
                     [ 4.62497917E+00,  1.98464942E-03,  1.16719990E-04,
                      -1.57452500E-07,  6.35800569E-11, -4.48463147E+04,
                       9.01294288E+00]),
                NASA([1000.00, 5000.00],
                     [ 9.46818022E+00,  3.01415216E-02, -1.22715607E-05,
                       2.27709663E-09, -1.58062296E-13, -4.79555436E+04,
                      -2.54124707E+01])),
        note='gpop')

species(name='C2OC2OB-2',
        atoms='C:4 H:8 O:2',
        thermo=(NASA([200.00, 1000.00],
                     [ 3.79147413E+00, -6.46443346E-04,  1.34558474E-04,
                      -1.79442933E-07,  7.18015499E-11, -4.07297483E+04,
                       1.02150502E+01]),
                NASA([1000.00, 5000.00],
                     [ 1.05730336E+01,  2.95618325E-02, -1.21994246E-05,
                       2.28659052E-09, -1.59911215E-13, -4.47362351E+04,
                      -3.60457725E+01])),
        note='gpop')

species(name='C2OC2OA-1',
        atoms='C:4 H:8 O:2',
        thermo=(NASA([200.00, 1000.00],
                     [ 5.57890481E+00,  5.51377434E-03,  1.00431994E-04,
                      -1.37484720E-07,  5.56256533E-11, -4.11166104E+04,
                       2.87830675E+00]),
                NASA([1000.00, 5000.00],
                     [ 1.02426891E+01,  2.92495856E-02, -1.18728145E-05,
                       2.19852886E-09, -1.52383158E-13, -4.39785693E+04,
                      -2.95379552E+01])),
        note='gpop')

species(name='EA',
        atoms='C:4 H:8 O:2',
        thermo=(NASA([300.00, 1383.00],
                     [ 1.16312385E+00,  5.06943556E-02, -3.20212856E-05,
                       1.02118838E-08, -1.33564307E-12, -5.55173089E+04,
                       2.22161733E+01]),
                NASA([1383.00, 5000.00],
                     [ 1.60449584E+01,  1.89741762E-02, -6.62235242E-06,
                       1.04213981E-09, -6.10344872E-14, -6.10621529E+04,
                      -5.89108620E+01])),
        note='4/19/7THERM')

species(name='C2H5OCH2CHO',
        atoms='C:4 H:8 O:2',
        thermo=(NASA([100.00, 1174.32],
                     [ 3.91034107E+00,  3.66170767E-02, -2.90958769E-06,
                      -1.48432607E-08,  6.13435485E-12, -4.10790994E+04,
                       1.17229839E+01]),
                NASA([1174.32, 5000.00],
                     [ 1.26766521E+01,  2.43583444E-02, -9.73375441E-06,
                       1.79430946E-09, -1.24794596E-13, -4.43516298E+04,
                      -3.71454547E+01])),
        note='GA_RMG')

species(name='C2H5OC2H4O-B',
        atoms='C:4 H:9 O:2',
        thermo=(NASA([200.00, 1000.00],
                     [ 6.79840239E+00,  5.53202571E-03,  1.00983505E-04,
                      -1.35632627E-07,  5.41637414E-11, -2.54121430E+04,
                       1.09427246E+00]),
                NASA([1000.00, 5000.00],
                     [ 1.06929197E+01,  3.18906785E-02, -1.29789037E-05,
                       2.40740207E-09, -1.67048485E-13, -2.81423663E+04,
                      -2.76161939E+01])),
        note='gpop')

species(name='C2H5OC2H4O-A',
        atoms='C:4 H:9 O:2',
        thermo=(NASA([200.00, 1000.00],
                     [ 5.96877211E+00,  1.19442313E-02,  8.74783512E-05,
                      -1.24184041E-07,  5.06611206E-11, -3.12676084E+04,
                       4.22310851E+00]),
                NASA([1000.00, 5000.00],
                     [ 1.10828239E+01,  3.12689634E-02, -1.26619001E-05,
                       2.34056884E-09, -1.62022319E-13, -3.41304665E+04,
                      -2.98272006E+01])),
        note='gpop')

species(name='C2OC2H4OOH-B',
        atoms='C:4 H:10 O:3',
        thermo=(NASA([200.00, 1000.00],
                     [ 8.22533389E+00,  6.92048291E-03,  1.12642387E-04,
                      -1.52856725E-07,  6.14026652E-11, -4.34026534E+04,
                      -3.83000908E+00]),
                NASA([1000.00, 5000.00],
                     [ 1.29659656E+01,  3.51008854E-02, -1.41649099E-05,
                       2.61282092E-09, -1.80617980E-13, -4.65151172E+04,
                      -3.77812479E+01])),
        note='gpop')

species(name='C2OC2H4OOH-A',
        atoms='C:4 H:10 O:3',
        thermo=(NASA([200.00, 1000.00],
                     [ 6.83587766E+00,  1.92614487E-02,  8.24257222E-05,
                      -1.22925251E-07,  5.07812291E-11, -4.96635973E+04,
                       2.84877009E-01]),
                NASA([1000.00, 5000.00],
                     [ 1.33862406E+01,  3.44729670E-02, -1.38520671E-05,
                       2.54763657E-09, -1.75750103E-13, -5.29039490E+04,
                      -4.11211019E+01])),
        note='gpop')

species(name='EVE',
        atoms='C:4 H:8 O:1',
        thermo=(NASA([300.00, 1000.00],
                     [-3.45029560E-01,  6.16421440E-02, -6.27489790E-05,