"""
------------------------------------------------------------------------------------




 HPMech (no NOx)



------------------------------------------------------------------------------------

------------------------------------------------------------------------------------

 COUNTERFLOW FLAME EXPERIMENTS AND CHEMICAL KINETIC MODELING
 OF DIMETHYL ETHER/METHANE MIXTURES

 HPMech v3.3 (no NOx)

 C.B. Reuter, R. Zhang, O.R. Yehia, Y. Rezgui, Y. Ju

------------------------------------------------------------------------------------

"""

units(length='cm', time='s', quantity='mol', act_energy='cal/mol')

ideal_gas(name='gas',
          elements="C H O N Ar He",
          species="""H             H2            CH2           CH2(S)
                     CH3           O             CH4           OH
                     H2O           C2H           C2H2          C2H3
                     CO            N2            C2H4          HCO
                     C2H5          CH2O          C2H6          CH2OH
                     CH3O          O2            CH3OH         HO2
                     H2O2          HCCO          CH2CO         HCCOH
                     CH2HCO        CH3CO         CO2           CH3HCO
                     OCHO          CH3CHOH       C2H4OH        CH3CH2O
                     CH3OCH2       HOCHO         CH3OCH3       C2H5OH
                     HOCH2O        CH3OCO        CH3OCHO       CH3OCH2O
                     CH3OCH2OH     OCH2OCHO      HOCH2OCO      HOC2H4O2
                     RO2     CH2OCH2O2H    CH3OCH2O2H    HO2CH2OCHO
                     O2CH2OCH2O2H  AR            HE            C
                     CH            HCOH          C2O           CH3O2
                     CH3O2H        C3H2          C3H2SING      c-C3H2
                     C3H3          C3H6          C4H2          pC3H4
                     aC3H4         c-C3H4        aC3H5         sC3H5
                     tC3H5         nC4H3         iC4H3         C4H4
                     nC4H5         iC4H5         C4H6-13       C4H6-12
                     C4H6-2        H2CC          CH2CHOH       C5H2
                     HCCCHCCH      H2CCCCCH      C4H5C2H       FC6H6
                     C6H6          C6H5          C2H3CHO       C5H6
                     C2H3CO        C4H           H2C4O         C6H2
                     C6H3          l-C6H4        o-C6H4        CH3CHCHCO
                     CH2CHCHCHO    C5H5          C6H5O         C6H4O2
                     C6H5OH        C5H4O         C5H5O         O(SING)
                     O2(SING)      O3            C2H4O2#4      CH2OCHO
                     HOCO          C2H5O         C2H5O2        C2H5O2H
                     C2H4O2H       C2H5CO        C2H5CHO       CH3CO2
                     CH3CO3        CH3CO3H       OCH2O2H       HOCH2O2
                     HOCH2O2H      O2CHO         HO2CHO        nC3H7
                     iC3H7         C3H8""",
          reactions='all',
          initial_state=state(temperature=300.0, pressure=OneAtm))

#-------------------------------------------------------------------------------
# Species data
#-------------------------------------------------------------------------------

species(name='H',
        atoms='H:1',
        thermo=(NASA([200.00, 1000.00],
                     [ 2.50000000E+00,  0.00000000E+00,  0.00000000E+00,
                       0.00000000E+00,  0.00000000E+00,  2.54736600E+04,
                      -4.46682850E-01]),
                NASA([1000.00, 6000.00],
                     [ 2.50000000E+00,  0.00000000E+00,  0.00000000E+00,
                       0.00000000E+00,  0.00000000E+00,  2.54736600E+04,
                      -4.46682850E-01])),
        note='L6/94')

species(name='H2',
        atoms='H:2',
        thermo=(NASA([200.00, 1000.00],
                     [ 2.34433112E+00,  7.98052075E-03, -1.94781510E-05,
                       2.01572094E-08, -7.37611761E-12, -9.17935173E+02,
                       6.83010238E-01]),
                NASA([1000.00, 6000.00],
                     [ 2.93286575E+00,  8.26608026E-04, -1.46402364E-07,
                       1.54100414E-11, -6.88804800E-16, -8.13065581E+02,
                      -1.02432865E+00])),
        note='REFELEMENTtpis78')

species(name='CH2',
        atoms='C:1 H:2',
        thermo=(NASA([200.00, 1000.00],
                     [ 3.71757846E+00,  1.27391260E-03,  2.17347251E-06,
                      -3.48858500E-09,  1.65208866E-12,  4.58723866E+04,
                       1.75297945E+00]),
                NASA([1000.00, 6000.00],
                     [ 3.14631886E+00,  3.03671259E-03, -9.96474439E-07,
                       1.50483580E-10, -8.57335515E-15,  4.60412605E+04,
                       4.72341711E+00])),
        note='IU3/03')

species(name='CH2(S)',
        atoms='C:1 H:2',
        thermo=(NASA([200.00, 1000.00],
                     [ 4.19331325E+00, -2.33105184E-03,  8.15676451E-06,
                      -6.62985981E-09,  1.93233199E-12,  5.03662246E+04,
                      -7.46734310E-01]),
                NASA([1000.00, 6000.00],
                     [ 3.13501686E+00,  2.89593926E-03, -8.16668090E-07,
                       1.13572697E-10, -6.36262835E-15,  5.05040504E+04,
                       4.06030621E+00])),
        note='IU3/03')

species(name='CH3',
        atoms='C:1 H:3',
        thermo=(NASA([200.00, 1000.00],
                     [ 3.65717970E+00,  2.12659790E-03,  5.45838830E-06,
                      -6.61810030E-09,  2.46570740E-12,  1.64227160E+04,
                       1.67353540E+00]),
                NASA([1000.00, 6000.00],
                     [ 2.97812060E+00,  5.79785200E-03, -1.97558000E-06,
                       3.07297900E-10, -1.79174160E-14,  1.65095130E+04,
                       4.72247990E+00])),
        note='IU0702')

species(name='O',
        atoms='O:1',
        thermo=(NASA([200.00, 1000.00],
                     [ 3.16826710E+00, -3.27931884E-03,  6.64306396E-06,
                      -6.12806624E-09,  2.11265971E-12,  2.91222592E+04,
                       2.05193346E+00]),
                NASA([1000.00, 6000.00],
                     [ 2.54363697E+00, -2.73162486E-05, -4.19029520E-09,
                       4.95481845E-12, -4.79553694E-16,  2.92260120E+04,
                       4.92229457E+00])),
        note='L1/90')

species(name='CH4',
        atoms='C:1 H:4',
        thermo=(NASA([200.00, 1000.00],
                     [ 5.14911468E+00, -1.36622009E-02,  4.91453921E-05,
                      -4.84246767E-08,  1.66603441E-11, -1.02465983E+04,
                      -4.63848842E+00]),
                NASA([1000.00, 6000.00],
                     [ 1.65326226E+00,  1.00263099E-02, -3.31661238E-06,
                       5.36483138E-10, -3.14696758E-14, -1.00095936E+04,
                       9.90506283E+00])),
        note='ANHARMONICg8/99')

species(name='OH',
        atoms='H:1 O:1',
        thermo=(NASA([200.00, 1000.00],
                     [ 3.99198424E+00, -2.40106655E-03,  4.61664033E-06,
                      -3.87916306E-09,  1.36319502E-12,  3.36889836E+03,
                      -1.03998477E-01]),
                NASA([1000.00, 6000.00],
                     [ 2.83853033E+00,  1.10741289E-03, -2.94000209E-07,
                       4.20698729E-11, -2.42289890E-15,  3.69780808E+03,
                       5.84494652E+00])),
        note='HYDROXYLRADIIU3/03')

species(name='H2O',
        atoms='H:2 O:1',
        thermo=(NASA([200.00, 1000.00],
                     [ 4.19863520E+00, -2.03640170E-03,  6.52034160E-06,
                      -5.48792690E-09,  1.77196800E-12, -3.02937260E+04,
                      -8.49009010E-01]),
                NASA([1000.00, 6000.00],
                     [ 2.67703890E+00,  2.97318160E-03, -7.73768890E-07,
                       9.44335140E-11, -4.26899910E-15, -2.98858940E+04,
                       6.88255000E+00])),
        note='L5/89')

species(name='C2H',
        atoms='C:2 H:1',
        thermo=(NASA([300.00, 1361.00],
                     [ 4.27708350E+00,  1.74130076E-03,  7.31180206E-07,
                      -9.71827901E-10,  2.36956727E-13,  6.63125955E+04,
                       3.16341916E-01]),
                NASA([1361.00, 5000.00],
                     [ 4.66893822E+00,  2.01284720E-03, -7.01828634E-07,
                       1.10347228E-10, -6.45790465E-15,  6.60310696E+04,
                      -2.25424693E+00])),
        note='10/4/5THERM')

species(name='C2H2',
        atoms='C:2 H:2',
        thermo=(NASA([300.00, 1407.00],
                     [ 2.06742667E+00,  1.46568506E-02, -1.52947063E-05,
                       8.30965761E-09, -1.72932175E-12,  2.59578589E+04,
                       8.62758672E+00]),
                NASA([1407.00, 5000.00],
                     [ 4.98265164E+00,  4.25992930E-03, -1.37483523E-06,
                       2.04717964E-10, -1.15191740E-14,  2.52697118E+04,
                      -5.81321385E+00])),
        note='10/4/5THERM')

species(name='C2H3',
        atoms='C:2 H:3',
        thermo=(NASA([300.00, 1395.00],
                     [ 1.25329724E+00,  1.56258370E-02, -1.07803879E-05,
                       4.18054634E-09, -7.01360362E-13,  3.50734773E+04,
                       1.71341661E+01]),
                NASA([1395.00, 5000.00],
                     [ 5.07331248E+00,  6.58316278E-03, -2.23762924E-06,
                       3.45803379E-10, -1.99940490E-14,  3.37234748E+04,
                      -3.39792712E+00])),
        note='10/4/5THERM')

species(name='CO',
        atoms='C:1 O:1',
        thermo=(NASA([200.00, 1000.00],
                     [ 3.57953350E+00, -6.10353690E-04,  1.01681430E-06,
                       9.07005860E-10, -9.04424490E-13, -1.43440860E+04,
                       3.50840930E+00]),
                NASA([1000.00, 6000.00],
                     [ 3.04848590E+00,  1.35172810E-03, -4.85794050E-07,
                       7.88536440E-11, -4.69807460E-15, -1.42661170E+04,
                       6.01709770E+00])),
        note='RUS79')

species(name='N2',
        atoms='N:2',
        thermo=(NASA([200.00, 1000.00],
                     [ 3.53100528E+00, -1.23660988E-04, -5.02999433E-07,
                       2.43530612E-09, -1.40881235E-12, -1.04697628E+03,
                       2.96747038E+00]),
                NASA([1000.00, 6000.00],
                     [ 2.95257637E+00,  1.39690040E-03, -4.92631603E-07,
                       7.86010195E-11, -4.60755204E-15, -9.23948688E+02,
                       5.87188762E+00])),
        note='REFELEMENTG8/02')

species(name='C2H4',
        atoms='C:2 H:4',
        thermo=(NASA([300.00, 1395.00],
                     [ 2.33879687E-01,  1.96334647E-02, -1.16833214E-05,
                       3.64246453E-09, -4.77442715E-13,  5.46489338E+03,
                       1.97084228E+01]),
                NASA([1395.00, 5000.00],
                     [ 5.22176372E+00,  8.96137303E-03, -3.04868886E-06,
                       4.71465524E-10, -2.72739592E-14,  3.60389679E+03,
                      -7.47789234E+00])),
        note='10/4/5THERM')

species(name='HCO',
        atoms='C:1 H:1 O:1',
        thermo=(NASA([200.00, 1000.00],
                     [ 4.23754610E+00, -3.32075257E-03,  1.40030264E-05,
                      -1.34239995E-08,  4.37416208E-12,  3.87241185E+03,
                       3.30834869E+00]),
                NASA([1000.00, 6000.00],
                     [ 3.92001542E+00,  2.52279324E-03, -6.71004164E-07,
                       1.05615948E-10, -7.43798261E-15,  3.65342928E+03,
                       3.58077056E+00])),
        note='T5/03')

species(name='C2H5',
        atoms='C:2 H:5',
        thermo=(NASA([300.00, 1387.00],
                     [ 1.32730217E+00,  1.76656753E-02, -6.14926558E-06,
                      -3.01143466E-10,  4.38617775E-13,  1.34284028E+04,
                       1.71789216E+01]),
                NASA([1387.00, 5000.00],
                     [ 5.88784390E+00,  1.03076793E-02, -3.46844396E-06,
                       5.32499257E-10, -3.06512651E-14,  1.15065499E+04,
                      -8.49651771E+00])),
        note='8/4/4THERM')

species(name='CH2O',
        atoms='C:1 H:2 O:1',
        thermo=(NASA([200.00, 1000.00],
                     [ 4.79372312E+00, -9.90833322E-03,  3.73219990E-05,
                      -3.79285237E-08,  1.31772641E-11, -1.43791953E+04,
                       6.02798058E-01]),
                NASA([1000.00, 6000.00],
                     [ 3.16952665E+00,  6.19320560E-03, -2.25056366E-06,
                       3.65975660E-10, -2.20149458E-14, -1.45486831E+04,
                       6.04207898E+00])),
        note='FormaldehyT5/11')

species(name='C2H6',
        atoms='C:2 H:6',
        thermo=(NASA([300.00, 1383.00],
                     [ 4.78623203E-02,  2.40569127E-02, -1.15155912E-05,
                       2.48666238E-09, -1.78343944E-13, -1.10923014E+04,
                       2.06544071E+01]),
                NASA([1383.00, 5000.00],
                     [ 6.05972630E+00,  1.30382837E-02, -4.48103942E-06,
                       6.97762095E-10, -4.05606353E-14, -1.35751226E+04,
                      -1.28608001E+01])),
        note='8/4/4THERM')

species(name='CH2OH',
        atoms='C:1 H:3 O:1',
        thermo=(NASA([200.00, 1000.00],
                     [ 4.47834367E+00, -1.35070310E-03,  2.78484980E-05,
                      -3.64869060E-08,  1.47907450E-11, -3.50072890E+03,
                       3.30913500E+00]),
                NASA([1000.00, 6000.00],
                     [ 5.09314370E+00,  5.94761260E-03, -2.06497460E-06,
                       3.23008173E-10, -1.88125902E-14, -4.03409640E+03,
                      -1.84691493E+00])),
        note='IU2/03')

species(name='CH3O',
        atoms='C:1 H:3 O:1',
        thermo=(NASA([200.00, 1000.00],
                     [ 3.71180502E+00, -2.80463306E-03,  3.76550971E-05,
                      -4.73072089E-08,  1.86588420E-11,  1.29569760E+03,
                       6.57240864E+00]),
                NASA([1000.00, 6000.00],
                     [ 4.75779238E+00,  7.44142474E-03, -2.69705176E-06,
                       4.38090504E-10, -2.63537098E-14,  3.78111940E+02,
                      -1.96680028E+00])),
        note='IU1/03')

species(name='O2',
        atoms='O:2',
        thermo=(NASA([200.00, 1000.00],
                     [ 3.78245636E+00, -2.99673416E-03,  9.84730201E-06,
                      -9.68129509E-09,  3.24372837E-12, -1.06394356E+03,
                       3.65767573E+00]),
                NASA([1000.00, 6000.00],
                     [ 3.66096065E+00,  6.56365811E-04, -1.41149627E-07,
                       2.05797935E-11, -1.29913436E-15, -1.21597718E+03,
                       3.41536279E+00])),
        note='REFELEMENTRUS89')

species(name='CH3OH',
        atoms='C:1 H:4 O:1',
        thermo=(NASA([200.00, 1000.00],
                     [ 5.65851051E+00, -1.62983419E-02,  6.91938156E-05,
                      -7.58372926E-08,  2.80427550E-11, -2.56119736E+04,
                      -8.97330508E-01]),
                NASA([1000.00, 6000.00],
                     [ 3.52726795E+00,  1.03178783E-02, -3.62892944E-06,
                       5.77448016E-10, -3.42182632E-14, -2.60028834E+04,
                       5.16758693E+00])),
        note='T06/02')

species(name='HO2',
        atoms='H:1 O:2',
        thermo=(NASA([200.00, 1000.00],
                     [ 4.30179807E+00, -4.74912097E-03,  2.11582905E-05,
                      -2.42763914E-08,  9.29225225E-12,  2.64018485E+02,
                       3.71666220E+00]),
                NASA([1000.00, 5000.00],
                     [ 4.17228741E+00,  1.88117627E-03, -3.46277286E-07,
                       1.94657549E-11,  1.76256905E-16,  3.10206839E+01,
                       2.95767672E+00])),
        note='T1/09')

species(name='H2O2',
        atoms='H:2 O:2',
        thermo=(NASA([200.00, 1000.00],
                     [ 4.31515149E+00, -8.47390622E-04,  1.76404323E-05,
                      -2.26762944E-08,  9.08950158E-12, -1.77067437E+04,
                       3.27373319E+00]),
                NASA([1000.00, 6000.00],
                     [ 4.57977305E+00,  4.05326003E-03, -1.29844730E-06,
                       1.98211400E-10, -1.13968792E-14, -1.80071775E+04,
                       6.64970694E-01])),
        note='T8/03')

species(name='HCCO',
        atoms='C:2 H:1 O:1',
        thermo=(NASA([300.00, 1000.00],
                     [ 5.04796500E+00,  4.45347800E-03,  2.26828300E-07,
                      -1.48209500E-09,  2.25074200E-13,  1.96589200E+04,
                       4.81843900E-01]),
                NASA([1000.00, 4000.00],
                     [ 6.75807300E+00,  2.00040000E-03, -2.02760700E-07,
                      -1.04113200E-10,  1.96516500E-14,  1.90151300E+04,
                      -9.07126200E+00])),
        note='32387')

species(name='CH2CO',
        atoms='C:2 H:2 O:1',
        thermo=(NASA([300.00, 1000.00],
                     [ 2.97497100E+00,  1.21187100E-02, -2.34504600E-06,
                      -6.46668500E-09,  3.90564900E-12, -7.63263700E+03,
                       8.67355300E+00]),
                NASA([1000.00, 5000.00],
                     [ 6.03881700E+00,  5.80484000E-03, -1.92095400E-06,
                       2.79448500E-10, -1.45886800E-14, -8.58340200E+03,
                      -7.65758100E+00])),
        note='121686')

species(name='HCCOH',
        atoms='C:2 H:2 O:1',
        thermo=(NASA([300.00, 1000.00],
                     [ 3.89946500E+00,  9.70107500E-03, -3.11930900E-07,
                      -5.53773200E-09,  2.46573200E-12,  8.70119000E+03,
                       4.49187500E+00]),
                NASA([1000.00, 4000.00],
                     [ 7.32832400E+00,  3.33641600E-03, -3.02470500E-07,
                      -1.78110600E-10,  3.24516800E-14,  7.59825800E+03,
                      -1.40121400E+01])),
        note='32387')

species(name='CH2HCO',
        atoms='C:2 H:3 O:1',
        thermo=(NASA([300.00, 1000.00],
                     [ 3.40906240E+00,  1.07385740E-02,  1.89149250E-06,
                      -7.15858310E-09,  2.86738510E-12,  1.52147660E+03,
                       9.57145350E+00]),
                NASA([1000.00, 5000.00],
                     [ 5.97566990E+00,  8.13059140E-03, -2.74362450E-06,
                       4.07030410E-10, -2.17601710E-14,  4.90321780E+02,
                      -5.03208790E+00])),
        note='T04/83')

species(name='CH3CO',
        atoms='C:2 H:3 O:1',
        thermo=(NASA([300.00, 1371.00],
                     [ 2.52884150E+00,  1.37152173E-02, -4.28607476E-06,
                      -7.71684278E-10,  4.83836380E-13, -3.02546532E+03,
                       1.40340315E+01]),
                NASA([1371.00, 5000.00],
                     [ 6.56682466E+00,  7.55308669E-03, -2.59966784E-06,
                       4.05334994E-10, -2.35876164E-14, -4.76690401E+03,
                      -8.83301965E+00])),
        note='8/10/4THERM')

species(name='CO2',
        atoms='C:1 O:2',
        thermo=(NASA([200.00, 1000.00],
                     [ 2.35681300E+00,  8.98412990E-03, -7.12206320E-06,
                       2.45730080E-09, -1.42885480E-13, -4.83719710E+04,
                       9.90090350E+00]),
                NASA([1000.00, 6000.00],
                     [ 4.63651110E+00,  2.74145690E-03, -9.95897590E-07,
                       1.60386660E-10, -9.16198570E-15, -4.90249040E+04,
                      -1.93489550E+00])),
        note='L7/88')

species(name='CH3HCO',
        atoms='C:2 H:4 O:1',
        thermo=(NASA([200.00, 1000.00],
                     [ 4.72945950E+00, -3.19328580E-03,  4.75349210E-05,
                      -5.74586110E-08,  2.19311120E-11, -2.15728780E+04,
                       4.10301590E+00]),
                NASA([1000.00, 6000.00],
                     [ 5.40411080E+00,  1.17230590E-02, -4.22631370E-06,
                       6.83724510E-10, -4.09848630E-14, -2.25931220E+04,
                      -3.48079170E+00])),
        note='L8/88')

species(name='OCHO',
        atoms='C:1 H:1 O:2',
        thermo=(NASA([298.00, 1000.00],
                     [ 3.56060492E+00,  1.14033058E-02, -1.07956214E-05,
                       6.33393819E-09, -1.76729568E-12, -1.67014616E+04,
                       7.14416613E+00]),
                NASA([1000.00, 3000.00],
                     [ 4.97589467E+00,  6.53225658E-03, -3.62793365E-06,
                       9.50833132E-10, -9.61189720E-14, -1.70589151E+04,
                       3.14702949E-02])),
        note='Goldsmith2012')

species(name='CH3CHOH',
        atoms='C:2 H:5 O:1',
        thermo=(NASA([300.00, 1000.00],
                     [ 2.48133280E+00,  1.67900360E-02,  3.77554990E-06,
                      -1.39234970E-08,  6.00951930E-12, -4.01200540E+03,
                       1.45816220E+01]),
                NASA([1000.00, 5000.00],
                     [ 6.76654240E+00,  1.16344360E-02, -3.77906510E-06,
                       5.38288750E-10, -2.73153450E-14, -5.60929690E+03,
                      -9.39804420E+00])),
        note='T4/83')

species(name='C2H4OH',
        atoms='C:2 H:5 O:1',
        thermo=(NASA([300.00, 1000.00],
                     [ 1.40195080E+00,  2.15431750E-02, -2.23265120E-06,
                      -1.44640920E-08,  8.04884200E-12, -3.84645190E+03,
                       1.91489810E+01]),
                NASA([1000.00, 5000.00],
                     [ 7.59440140E+00,  9.32293390E-03, -3.03038540E-06,
                       4.32163190E-10, -2.19700390E-14, -5.77278520E+03,
                      -1.39555720E+01])),
        note='T4/83')

species(name='CH3CH2O',
        atoms='C:2 H:5 O:1',
        thermo=(NASA([300.00, 1000.00],
                     [ 1.73025040E+00,  1.69084890E-02,  3.99962210E-06,
                      -1.37111800E-08,  5.76436030E-12, -3.29224830E+03,
                       1.73361150E+01]),
                NASA([1000.00, 5000.00],
                     [ 6.01143460E+00,  1.21652190E-02, -4.04496040E-06,
                       5.90765880E-10, -3.09695950E-14, -4.93669920E+03,
                      -6.79017980E+00])),
        note='T11/82')

species(name='CH3OCH2',
        atoms='C:2 H:5 O:1',
        thermo=(NASA([300.00, 1376.00],
                     [ 2.91327415E+00,  2.03364659E-02, -9.59712342E-06,
                       2.07478525E-09, -1.71343362E-13, -1.18844240E+03,
                       1.16066817E+01]),
                NASA([1376.00, 5000.00],
                     [ 8.17137842E+00,  1.10086181E-02, -3.82352277E-06,
                       5.99637202E-10, -3.50317513E-14, -3.41941605E+03,
                      -1.78650856E+01])),
        note='7/20/98THERM')

species(name='HOCHO',
        atoms='C:1 H:2 O:2',
        thermo=(NASA([200.00, 1000.00],
                     [ 3.89836160E+00, -3.55877950E-03,  3.55205380E-05,
                      -4.38499590E-08,  1.71077690E-11, -4.67706090E+04,
                       7.34953970E+00]),
                NASA([1000.00, 6000.00],
                     [ 4.61383160E+00,  6.44963640E-03, -2.29082510E-06,
                       3.67160470E-10, -2.18736750E-14, -4.75148500E+04,
                       8.47883830E-01])),
        note='FORMICACIDL8/88')

species(name='CH3OCH3',
        atoms='C:2 H:6 O:1',
        thermo=(NASA([200.00, 1000.00],
                     [ 5.30562273E+00, -2.14253958E-03,  5.30873092E-05,
                      -6.23146897E-08,  2.30730916E-11, -2.39655820E+04,
                       7.13244569E-01]),
                NASA([1000.00, 6000.00],
                     [ 5.64844274E+00,  1.63381875E-02, -5.86802189E-06,
                       9.46836384E-10, -5.66504295E-14, -2.50864216E+04,
                      -5.96267354E+00])),
        note='T03/10')

species(name='C2H5OH',
        atoms='C:2 H:6 O:1',
        thermo=(NASA([300.00, 1395.00],
                     [ 1.79106094E-01,  3.09060081E-02, -1.93596697E-05,
                       6.31830859E-09, -8.53166875E-13, -2.95670605E+04,
                       2.44715919E+01]),
                NASA([1395.00, 5000.00],
                     [ 8.31742137E+00,  1.29603294E-02, -4.39286497E-06,
                       6.77734995E-10, -3.91448231E-14, -3.25219715E+04,
                      -1.96502783E+01])),
        note='8/9/4THERM')

species(name='HOCH2O',
        atoms='C:1 H:3 O:2',
        thermo=(NASA([300.00, 1798.00],
                     [-1.69442164E+00,  4.31476187E-02, -4.67268643E-05,
                       2.25011822E-08, -3.87347875E-12, -2.09518057E+04,
                       2.90578754E+01]),
                NASA([1798.00, 5000.00],
                     [ 8.48089986E+00,  5.06316158E-03, -1.75525642E-07,
                      -4.30680645E-10,  5.94330789E-14, -2.27469965E+04,
                      -1.98148133E+01])),
        note='10/1/12THERM')

species(name='CH3OCO',
        atoms='C:2 H:3 O:2',
        thermo=(NASA([298.00, 1674.00],
                     [ 2.08416308E+00,  2.19000960E-02, -1.25607398E-05,
                       3.15157405E-09, -2.41688745E-13, -2.12131253E+04,
                       1.83571826E+01]),
                NASA([1674.00, 5000.00],
                     [ 8.10853949E+00,  9.04376074E-03, -3.20373313E-06,
                       5.11748140E-10, -3.03505965E-14, -2.32888578E+04,
                      -1.42376225E+01])),
        note='7/11/12CEFRC')

species(name='CH3OCHO',
        atoms='C:2 H:4 O:2',
        thermo=(NASA([298.00, 1530.00],
                     [ 7.18709977E-01,  2.65726390E-02, -1.13731407E-05,
                       5.04292397E-11,  7.32418158E-13, -4.41186702E+04,
                       2.33224916E+01]),
                NASA([1530.00, 5000.00],
                     [ 1.01676920E+01,  9.87660465E-03, -3.46934288E-06,
                       5.48580455E-10, -3.22441064E-14, -4.78700003E+04,
                      -2.92203493E+01])),
        note='7/11/12CEFRC')

species(name='CH3OCH2O',
        atoms='C:2 H:5 O:2',
        thermo=(NASA([300.00, 2012.00],
                     [ 3.25889339E+00,  2.22146359E-02, -7.78556340E-06,
                      -2.41484158E-10,  4.51914496E-13, -1.92377212E+04,
                       1.23680069E+01]),
                NASA([2012.00, 5000.00],
                     [ 8.60261845E+00,  1.35772195E-02, -4.84661602E-06,
                       7.77766193E-10, -4.62633624E-14, -2.13762444E+04,
                      -1.75775023E+01])),
        note='2/9/96THERM')

species(name='CH3OCH2OH',
        atoms='C:2 H:6 O:2',
        thermo=(NASA([300.00, 2014.00],
                     [ 3.15851876E+00,  2.44325751E-02, -8.66984784E-06,
                      -5.93319328E-11,  4.36400003E-13, -4.54488899E+04,
                       1.30511235E+01]),
                NASA([2014.00, 5000.00],
                     [ 8.70981570E+00,  1.53602372E-02, -5.41003788E-06,
                       8.60573446E-10, -5.08819752E-14, -4.76607115E+04,
                      -1.80226702E+01])),
        note='2/9/96THERM')

species(name='OCH2OCHO',
        atoms='C:2 H:3 O:3',
        thermo=(NASA([300.00, 1407.00],
                     [-2.95833534E+00,  5.89201468E-02, -5.92457585E-05,
                       2.79572672E-08, -5.05681290E-12, -3.98218297E+04,
                       3.73061801E+01]),
                NASA([1407.00, 5000.00],
                     [ 1.62282241E+01,  5.37205641E-03, -1.96533778E-06,
                       3.19132941E-10, -1.91033103E-14, -4.54735234E+04,
                      -6.24116504E+01])),
        note='7/11/12THERM')

species(name='HOCH2OCO',
        atoms='C:2 H:3 O:3',
        thermo=(NASA([300.00, 1411.00],
                     [-1.63107663E+00,  5.53214172E-02, -5.76065408E-05,
                       2.81334934E-08, -5.23832882E-12, -4.33687713E+04,
                       3.28415415E+01]),
                NASA([1411.00, 5000.00],
                     [ 1.56578563E+01,  5.09504394E-03, -1.79540452E-06,
                       2.84861141E-10, -1.67940808E-14, -4.82707476E+04,
                      -5.63239757E+01])),
        note='7/11/12THERM')

species(name='HOC2H4O2',
        atoms='C:2 H:5 O:3',
        thermo=(NASA([300.00, 1391.00],
                     [ 4.44209543E+00,  2.52880383E-02, -1.51605275E-05,
                       5.24921198E-09, -7.91470852E-13, -2.17507126E+04,
                       1.04122371E+01]),
                NASA([1391.00, 5000.00],
                     [ 1.00941573E+01,  1.23879015E-02, -3.73811683E-06,
                       5.46874551E-10, -3.09943951E-14, -2.37710522E+04,
                      -2.00956526E+01])))

species(name='RO2',
        atoms='C:2 H:5 O:3',
        thermo=(NASA([300.00, 1389.00],
                     [ 2.21029612E+00,  3.68877454E-02, -2.82561555E-05,
                       1.15730533E-08, -1.97130470E-12, -1.94940940E+04,
                       1.91463601E+01]),
                NASA([1389.00, 5000.00],
                     [ 1.24249729E+01,  1.18705986E-02, -4.07906532E-06,
                       6.35310809E-10, -3.69427867E-14, -2.29679238E+04,
                      -3.53740145E+01])),
        note='7/20/98THERM')

species(name='CH2OCH2O2H',
        atoms='C:2 H:5 O:3',
        thermo=(NASA([300.00, 1393.00],
                     [ 2.52895507E+00,  4.24128290E-02, -3.73406386E-05,
                       1.66639333E-08, -2.96443312E-12, -1.44293306E+04,
                       1.76899251E+01]),
                NASA([1393.00, 5000.00],
                     [ 1.51191783E+01,  9.23718883E-03, -3.19127505E-06,
                       4.99114678E-10, -2.91162488E-14, -1.84114867E+04,
                      -4.85706618E+01])),
        note='7/20/98THERM')

species(name='CH3OCH2O2H',
        atoms='C:2 H:6 O:3',
        thermo=(NASA([300.00, 1392.00],
                     [ 1.19855761E+00,  4.59060764E-02, -3.66252420E-05,